
 + + + + + + + + + + + + + + + + + + + + + + + + + + + + + + + + + + + + + + + +
 + + + + + + + + + + + + + + + + + + + + + + + + + + + + + + + + + + + + + + + +
 + +                                                                         + +
 + +                      ASPEN PLUS CALCULATION HISTORY                     + +
 + +                                                                         + +
 + + + + + + + + + + + + + + + + + + + + + + + + + + + + + + + + + + + + + + + +
 + + + + + + + + + + + + + + + + + + + + + + + + + + + + + + + + + + + + + + + +

 ASPEN PLUS IS A TRADEMARK OF           HOTLINE:
 ASPEN TECHNOLOGY, INC.                 U.S.A. 888/996-7100
 781/221-6400                           EUROPE (44) 1189-226555

 PLATFORM: WIN-X64                                       APRIL 17, 2025      
 VERSION: 40.0   Build 359                               THURSDAY    
 INSTALLATION:                                           10:01:55 P.M.       

 THIS COPY OF ASPEN PLUS LICENSED TO JOHNS HOPKINS UNIVERSITY        


      ASPEN PLUS (R) IS A PROPRIETARY PRODUCT OF ASPEN TECHNOLOGY, INC.
      (ASPENTECH), AND MAY BE USED ONLY UNDER AGREEMENT WITH ASPENTECH.
      RESTRICTED RIGHTS LEGEND:  USE, REPRODUCTION, OR DISCLOSURE BY THE
      U.S. GOVERNMENT IS SUBJECT TO RESTRICTIONS SET FORTH IN 
      (i) FAR 52.227-14, Alt. III, (ii) FAR 52.227-19, (iii) DFARS 
      252.227-7013(c)(1)(ii), or (iv) THE ACCOMPANYING LICENSE AGREEMENT,
      AS APPLICABLE. FOR PURPOSES OF THE FAR, THIS SOFTWARE SHALL BE DEEMED
      TO BE "UNPUBLISHED" AND LICENSED WITH DISCLOSURE PROHIBITIONS.
      CONTRACTOR/SUBCONTRACTOR: ASPEN TECHNOLOGY, INC. 20 CROSBY DRIVE,
      BEDFORD, MA 01730.
 *** INPUT SUMMARY ***

 >>CURRENT RUN

   ORIGINAL RUN                           APRIL 17, 2025      
   10:01:55 P.M.                          THURSDAY    
   INPUT FILE: _0146oly.inm
   RUN ID : _0146oly
          1    ;
          2    ;Input file created by Aspen Plus Rel. 40.0 at 22:01:54 Thu Apr 17, 2025
          3    ;Directory C:\Users\wsangpa1\OneDrive - Johns Hopkins\ASPEN\Aspen\Vinyl_Distillation  Runid VINYL CHLORIDE DISTILLATION
          4    ;
          5
          6
          7    DYNAMICS
          8        DYNAMICS RESULTS=ON
          9
         10    IN-UNITS MET PRESSURE=bar TEMPERATURE=C DELTA-T=C PDROP=bar  &
         11            INVERSE-PRES='1/bar' SHORT-LENGTH=mm
         12
         13    DEF-STREAMS CONVEN ALL
         14
         15    MODEL-OPTION
         16
         17    DATABANKS 'APV140 PURE40' / 'APV140 AQUEOUS' / 'APV140 SOLIDS' &
         18             / 'APV140 INORGANIC' / 'APESV140 AP-EOS' /  &
         19            'NISTV140 NIST-TRC' / 'APESV140 ACIDGAS' /  &
         20            'APESV140 BIOFEED' / 'APESV140 FERMENT' /  &
         21            'APESV140 FLARE' / 'APV140 ASPENPCD' / 'APV140 BIODIESEL' &
         22             / 'APV140 COMBUST' / 'APV140 ELECPURE' /  &
         23            'APV140 EOS-LIT' / 'APV140 ETHYLENE' / 'APV140 HYSYS' /  &
         24            'APV140 INITIATO' / 'APV140 NRTL-SAC' / 'APV140 PC-SAFT' &
         25             / 'APV140 POLYMER' / 'APV140 POLYPCSF' /  &
         26            'APV140 PURE25' / 'APV140 PURE26' / 'APV140 PURE27' /  &
         27            'APV140 PURE28' / 'APV140 PURE32' / 'APV140 PURE35' /  &
         28            'APV140 PURE36' / 'APV140 PURE37' / 'APV140 PURE38' /  &
         29            'APV140 PURE39' / 'APV140 SEGMENT' / 'FACTV140 FACTPCD'
         30
         31    PROP-SOURCES 'APV140 PURE40' / 'APV140 AQUEOUS' /  &
         32            'APV140 SOLIDS' / 'APV140 INORGANIC' / 'APESV140 AP-EOS' &
         33             / 'NISTV140 NIST-TRC' / 'APESV140 ACIDGAS' /  &
         34            'APESV140 BIOFEED' / 'APESV140 FERMENT' /  &
         35            'APESV140 FLARE' / 'APV140 ASPENPCD' / 'APV140 BIODIESEL' &
         36             / 'APV140 COMBUST' / 'APV140 ELECPURE' /  &
         37            'APV140 EOS-LIT' / 'APV140 ETHYLENE' / 'APV140 HYSYS' /  &
         38            'APV140 INITIATO' / 'APV140 NRTL-SAC' / 'APV140 PC-SAFT' &
         39             / 'APV140 POLYMER' / 'APV140 POLYPCSF' /  &
         40            'APV140 PURE25' / 'APV140 PURE26' / 'APV140 PURE27' /  &
         41            'APV140 PURE28' / 'APV140 PURE32' / 'APV140 PURE35' /  &
         42            'APV140 PURE36' / 'APV140 PURE37' / 'APV140 PURE38' /  &
         43            'APV140 PURE39' / 'APV140 SEGMENT' / 'FACTV140 FACTPCD'
         44
         45    COMPONENTS
         46        VINYL-01 C2H3CL /
         47        ACETY-01 C2H2 /
         48        DICHL-01 C2H4CL2-1 /
         49        OXYGE-01 O2 /
         50        HYDRO-01 HCL /
         51        WATER H2O /
         52        NITROGEN N2 /
         53        CARBONMO CO /
         54        METHANE CH4
         55
         56    SOLVE
         57        RUN-MODE MODE=SIM
         58
         59    FLOWSHEET
         60        BLOCK RADFRAC1 IN=FEED OUT=D1 B1
         61        BLOCK RADFRAC2 IN=B1 OUT=D2 B2
         62
         63    PROPERTIES NRTL
         64
         65    PROP-DATA PCES-1
         66        IN-UNITS MET PRESSURE=bar TEMPERATURE=C DELTA-T=C PDROP=bar  &
         67            INVERSE-PRES='1/bar' SHORT-LENGTH=mm
         68        PROP-LIST DHVLB / VB / RKTZRA / VLSTD
         69        PVAL DICHL-01 6750.889295 / 88.65938200 / .2692624250 /  &
         70            83.75050270
         71
         72    PROP-DATA DHVLWT-1
         73        IN-UNITS MET PRESSURE=bar TEMPERATURE=C DELTA-T=C PDROP=bar  &
         74            INVERSE-PRES='1/bar' SHORT-LENGTH=mm
         75        PROP-LIST DHVLWT
         76        PVAL DICHL-01 6750.889295 57.20700000 .3800000000 0.0  &
         77            -141.0072000
         78
         79    PROP-DATA KLDIP-1
         80        IN-UNITS MET PRESSURE=bar TEMPERATURE=C DELTA-T=C PDROP=bar  &
         81            INVERSE-PRES='1/bar' SHORT-LENGTH=mm
         82        PROP-LIST KLDIP
         83        PVAL DICHL-01 .1017396118 6.34424108E-5 -4.1249461E-6  &
         84            2.17593050E-8 -4.501867E-11 57.20700000 243.5904000
         85
         86    PROP-DATA MULAND-1
         87        IN-UNITS MET PRESSURE=bar TEMPERATURE=C DELTA-T=C PDROP=bar  &
         88            INVERSE-PRES='1/bar' SHORT-LENGTH=mm
         89        PROP-LIST MULAND
         90        PVAL DICHL-01 80.92147478 -3642.542350 -12.26059350  &
         91            57.20700000 243.5904000
         92
         93    PROP-DATA SIGDIP-1
         94        IN-UNITS MET PRESSURE=bar TEMPERATURE=C DELTA-T=C PDROP=bar  &
         95            INVERSE-PRES='1/bar' SHORT-LENGTH=mm
         96        PROP-LIST SIGDIP
         97        PVAL DICHL-01 68.72045330 1.222222220 -1.348626E-10  &
         98            1.4957495E-10 -6.024811E-11 57.20700000 238.3708000
         99
        100    PROP-DATA NRTL-1
        101        IN-UNITS MET PRESSURE=bar TEMPERATURE=C DELTA-T=C PDROP=bar  &
        102            INVERSE-PRES='1/bar' SHORT-LENGTH=mm
        103        PROP-LIST NRTL
        104        BPVAL VINYL-01 HYDRO-01 .3421000000 -119.7519000 .3000000000  &
        105            0.0 0.0 0.0 -80.70000000 -80.70000000
        106        BPVAL HYDRO-01 VINYL-01 .1251000000 13.81580000 .3000000000  &
        107            0.0 0.0 0.0 -80.70000000 -80.70000000
        108        BPVAL VINYL-01 WATER -7.166300000 3581.032000 .3000000000  &
        109            0.0 0.0 0.0 15.00000000 92.00000000
        110        BPVAL WATER VINYL-01 4.137300000 253.3814000 .3000000000  &
        111            0.0 0.0 0.0 15.00000000 92.00000000
        112        BPVAL DICHL-01 WATER 161.6302000 -4790.826200 .2000000000  &
        113            0.0 -24.93690000 0.0 0.0 50.00000000
        114        BPVAL WATER DICHL-01 128.7456000 -6025.360400 .2000000000  &
        115            0.0 -18.11790000 0.0 0.0 50.00000000
        116
        117    STREAM FEED
        118        SUBSTREAM MIXED TEMP=15.0227 PRES=540. <kPa>  &
        119            MOLE-FLOW=238.1141
        120        MOLE-FRAC VINYL-01 0.82 / ACETY-01 0.0163 / DICHL-01  &
        121            0.0125 / OXYGE-01 0.0058 / HYDRO-01 0.0682 / WATER  &
        122            0.0026 / NITROGEN 0.0552 / CARBONMO 0.006 / METHANE  &
        123            0.0134
        124
        125    BLOCK RADFRAC1 RADFRAC
        126        SUBOBJECTS INTERNALS = CS-1 CS-2
        127        PARAM NSTAGE=33 ALGORITHM=STANDARD HYDRAULIC=NO MAXOL=25  &
        128            DAMPING=NONE
        129        PARAM2 STATIC-DP=YES OLD-SULZER=NO
        130        COL-CONFIG CONDENSER=TOTAL CA-CONFIG=INT-1
        131        FEEDS FEED 22
        132        PRODUCTS B1 33 L / D1 1 L
        133        P-SPEC 1 525. <kPa>
        134        COL-SPECS D:F=0.46195050839 MOLE-RR=1.3424112965
        135        REPORT NOHYDRAULIC
        136        INTERNALS CS-1 STAGE1=2 STAGE2=5 P-UPDATE=NO TRAYTYPE=SIEVE  &
        137            NPASS=1 SYSFAC=1.000000000 OVER-DESIGN=1.000000000  &
        138            WEIR-HT=50.80000000 <mm> DC-CLEAR=38.10000000 <mm>  &
        139            DC-WTOP-SIDE=141.1844920 <mm> DC-WBOT-SIDE=141.1844920 <mm>  &
        140            HOLE-DIAM=12.70000000 <mm> HOLE-AREA=.1000000000  &
        141            FLOOD-METH=GLITSCH6 DECK-THICK=0.134 <IN>  &
        142            PCT-FLOOD-FA=80.00000000 AER-PARAM-M=1.000000000  &
        143            MAX-DC-LOAD=GLITSCH MAX-ACC-DP=.0250000000  &
        144            MAX-PCT-DCB=100.0000000 MAX-PCT-ENT=10.00000000  &
        145            MIN-WEIR-LD=4.470981863 MAX-WEIR-LD=117.3721131  &
        146            MIN-PCT-DCA=.1000000000
        147        TRAY-SIZE 1 2 5 SIEVE
        148        INTERNALS CS-2 STAGE1=6 STAGE2=32 P-UPDATE=NO  &
        149            TRAYTYPE=SIEVE NPASS=1 SYSFAC=1.000000000  &
        150            OVER-DESIGN=1.000000000 WEIR-HT=50.80000000 <mm>  &
        151            DC-CLEAR=38.10000000 <mm> DC-WTOP-SIDE=138.4000000 <mm>  &
        152            DC-WBOT-SIDE=138.4000000 <mm> HOLE-DIAM=12.70000000 <mm>  &
        153            HOLE-AREA=.1000000000 FLOOD-METH=GLITSCH6  &
        154            DECK-THICK=0.134 <IN> PCT-FLOOD-FA=80.00000000  &
        155            AER-PARAM-M=1.000000000 MAX-DC-LOAD=GLITSCH  &
        156            MAX-ACC-DP=.0250000000 MAX-PCT-DCB=100.0000000  &
        157            MAX-PCT-ENT=10.00000000 MIN-WEIR-LD=4.470981863  &
        158            MAX-WEIR-LD=117.3721131 MIN-PCT-DCA=.1000000000
        159        TRAY-SIZE 2 6 32 SIEVE
        160        UTILITIES COND-UTIL=REFRIG4 REB-UTIL=LP
        161
        162    BLOCK RADFRAC2 RADFRAC
        163        SUBOBJECTS INTERNALS = CS-1 CS-2
        164        PARAM NSTAGE=38 ALGORITHM=STANDARD HYDRAULIC=NO MAXOL=25  &
        165            DAMPING=NONE
        166        PARAM2 STATIC-DP=YES OLD-SULZER=NO
        167        COL-CONFIG CONDENSER=TOTAL CA-CONFIG=INT-1
        168        FEEDS B1 22
        169        PRODUCTS B2 38 L / D2 1 L
        170        P-SPEC 1 213. <kPa>
        171        COL-SPECS D:F=0.89970681821 MOLE-RR=0.988000365
        172        REPORT NOHYDRAULIC
        173        INTERNALS CS-1 STAGE1=2 STAGE2=26 P-UPDATE=NO  &
        174            TRAYTYPE=SIEVE NPASS=1 SYSFAC=1.000000000  &
        175            OVER-DESIGN=1.000000000 WEIR-HT=50.80000000 <mm>  &
        176            DC-CLEAR=38.10000000 <mm> DC-WTOP-SIDE=131.3579200 <mm>  &
        177            DC-WBOT-SIDE=131.3579200 <mm> HOLE-DIAM=12.70000000 <mm>  &
        178            HOLE-AREA=.1000000000 FLOOD-METH=GLITSCH6  &
        179            DECK-THICK=0.134 <IN> PCT-FLOOD-FA=80.00000000  &
        180            AER-PARAM-M=1.000000000 MAX-DC-LOAD=GLITSCH  &
        181            MAX-ACC-DP=.0250000000 MAX-PCT-DCB=100.0000000  &
        182            MAX-PCT-ENT=10.00000000 MIN-WEIR-LD=4.470981863  &
        183            MAX-WEIR-LD=117.3721131 MIN-PCT-DCA=.1000000000
        184        TRAY-SIZE 1 2 26 SIEVE
        185        INTERNALS CS-2 STAGE1=27 STAGE2=37 P-UPDATE=NO  &
        186            TRAYTYPE=SIEVE NPASS=1 SYSFAC=1.000000000  &
        187            OVER-DESIGN=1.000000000 WEIR-HT=50.80000000 <mm>  &
        188            DC-CLEAR=38.10000000 <mm> DC-WTOP-SIDE=126.2597047 <mm>  &
        189            DC-WBOT-SIDE=126.2597047 <mm> HOLE-DIAM=12.70000000 <mm>  &
        190            HOLE-AREA=.1000000000 FLOOD-METH=GLITSCH6  &
        191            DECK-THICK=0.134 <IN> PCT-FLOOD-FA=80.00000000  &
        192            AER-PARAM-M=1.000000000 MAX-DC-LOAD=GLITSCH  &
        193            MAX-ACC-DP=.0250000000 MAX-PCT-DCB=100.0000000  &
        194            MAX-PCT-ENT=10.00000000 MIN-WEIR-LD=4.470981863  &
        195            MAX-WEIR-LD=117.3721131 MIN-PCT-DCA=.1000000000
        196        TRAY-SIZE 2 27 37 SIEVE
        197        UTILITIES COND-UTIL=REFRIG1 REB-UTIL=LP
        198
        199    UTILITY HP GENERAL
        200        DESCRIPTION  &
        201            'High Pressure Steam, Inlet Temp=250 C, Outlet Temp=249 C, Pres=572 psia'
        202        COST ENERGY-PRICE=2.5E-06 <$/kJ>
        203        PARAM UTILITY-TYPE=STEAM TIN=250. TOUT=249. VFRAC=1.  &
        204            VFR-OUT=0. CALOPT=FLASH MIN-TAPP=10. CALCCO2=YES  &
        205            FACTORSOURCE="US-Title40-Part98" FUELSOURCE="Natural_gas"  &
        206            CO2FACTOR=2.10554172E-7 EFFICIENCY=0.85  &
        207            HTC=0.0216 <GJ/hr-sqm-C>
        208
        209    UTILITY LP GENERAL
        210        DESCRIPTION  &
        211            'Low Pressure Steam, Inlet Temp=125 C, Outlet Temp=124 C'
        212        COST ENERGY-PRICE=1.9E-06 <$/kJ>
        213        PARAM UTILITY-TYPE=STEAM TIN=125. TOUT=124. VFRAC=1.  &
        214            VFR-OUT=0. CALOPT=FLASH MIN-TAPP=10. CALCCO2=YES  &
        215            FACTORSOURCE="US-Title40-Part98" FUELSOURCE="Natural_gas"  &
        216            CO2FACTOR=2.10554172E-7 EFFICIENCY=0.85  &
        217            HTC=0.0216 <GJ/hr-sqm-C>
        218
        219    UTILITY MP GENERAL
        220        DESCRIPTION  &
        221            'Medium Pressure Steam, Inlet Temp=175 C, Outlet Temp=174 C, Pres=127 psia'
        222        COST ENERGY-PRICE=2.2E-06 <$/kJ>
        223        PARAM UTILITY-TYPE=STEAM TIN=175. TOUT=174. VFRAC=1.  &
        224            VFR-OUT=0. CALOPT=FLASH MIN-TAPP=10. CALCCO2=YES  &
        225            FACTORSOURCE="US-Title40-Part98" FUELSOURCE="Natural_gas"  &
        226            CO2FACTOR=2.10554172E-7 EFFICIENCY=0.85  &
        227            HTC=0.0216 <GJ/hr-sqm-C>
        228
        229    UTILITY REFRIG1 GENERAL
        230        DESCRIPTION  &
        231            'Refrigerant 1, Inlet Temp=-25 C, Outlet Temp=-24 C'
        232        COST ENERGY-PRICE=2.74E-06 <$/kJ>
        233        PARAM UTILITY-TYPE=REFRIGERATIO COOLING-VALU=-4. <kJ/kg>  &
        234            TIN=-25. TOUT=-24. MIN-TAPP=3. CALCCO2=YES FACTORSOURCE= &
        235            "US-Title40-Part98" FUELSOURCE="Natural_gas"  &
        236            CO2FACTOR=2.10554172E-7 EFFICIENCY=1.  &
        237            HTC=0.00468 <GJ/hr-sqm-C>
        238
        239    UTILITY REFRIG4 GENERAL
        240        DESCRIPTION  &
        241            'Very Low Temperature, Inlet Temp=-270 C, Outlet Temp=-269 C'
        242        COST ENERGY-PRICE=8.9E-06 <$/kJ>
        243        PARAM UTILITY-TYPE=REFRIGERATIO COOLING-VALU=-1.341 <kJ/kg>  &
        244            TIN=-270. TOUT=-269. MIN-TAPP=2. CALCCO2=YES  &
        245            FACTORSOURCE="US-Title40-Part98" FUELSOURCE="Natural_gas"  &
        246            CO2FACTOR=2.10554172E-7 EFFICIENCY=1.  &
        247            HTC=0.00468 <GJ/hr-sqm-C>
        248
        249    UTILITY WATER GENERAL
        250        DESCRIPTION 'Cooling Water, Inlet Temp=20 C, Outlet Temp=25 C'
        251        COST ENERGY-PRICE=2.12E-07 <$/kJ>
        252        PARAM UTILITY-TYPE=WATER PRES=1. <atm> PRES-OUT=1. <atm>  &
        253            TIN=20. TOUT=25. CALOPT=FLASH MIN-TAPP=5.  &
        254            HTC=0.0135 <GJ/hr-sqm-C>
        255
        256    EO-CONV-OPTI
        257
        258    STREAM-REPOR MOLEFLOW
        259
        260    PROPERTY-REP PCES NOPROP-DATA NODFMS
        261    ;
        262    ;
        263    ;
        264    ;
        265    ;
 *** INPUT TRANSLATOR MESSAGES ***

  *** THIS RUN USES THE PROPERTIES ENTERPRISE DATABASE ***
      SQLLOCALDB.APESV140 : (DATAVERSION - 40.0.0.13)                         
      SQLLOCALDB.APV140 : (DATAVERSION - 40.0.0.13)                           
      SQLLOCALDB.FACTV140 : (DATAVERSION - 40.0.0.12)                         
      SQLLOCALDB.NISTV140 : (DATAVERSION - 40.0.0.12)                         
 
 

 PDF updated                                                                      TIME =      2.89

 *** CALCULATION TRACE ***


 *** FLOWSHEET ANALYSIS MESSAGES ***

 FLOWSHEET CONNECTIVITY BY STREAMS       

   STREAM     SOURCE     DEST           STREAM     SOURCE     DEST
   FEED       ----       RADFRAC1       D1         RADFRAC1   ----    
   B1         RADFRAC1   RADFRAC2       D2         RADFRAC2   ----    
   B2         RADFRAC2   ----                                         

 FLOWSHEET CONNECTIVITY BY BLOCKS        

   BLOCK        INLETS                         OUTLETS
   RADFRAC1     FEED                           D1 B1                       
   RADFRAC2     B1                             D2 B2                       

      COMPUTATION ORDER FOR THE FLOWSHEET IS:
      REFRIG1 LP REFRIG4 RADFRAC1 RADFRAC2 HP MP WATER 

Calculations begin                                                              time      1.39


 SIMULATION CALCULATIONS BEGIN                                                    TIME =      1.39

      UTILITY BLOCK REFRIG1  MODEL: GENERAL                                       TIME =      1.39
      HEATING/COOLING VALUE    -4.000000D+03 J/KG

      UTILITY BLOCK LP       MODEL: GENERAL                                       TIME =      1.39
      KODE = 5  NTRIAL =   2  T = 398.1500  P =  232179.      V =  1.00000      Q =  0.00000    
      KODE = 5  NTRIAL =   2  T = 397.1500  P =  225121.      V =  0.00000      Q =  0.00000    
      HEATING/COOLING VALUE     2.191879D+06 J/KG

      UTILITY BLOCK REFRIG4  MODEL: GENERAL                                       TIME =      1.39
      HEATING/COOLING VALUE    -1.341000D+03 J/KG

      ENTHALPY CALCULATION FOR INLET STREAM FEED OF BLOCK RADFRAC1                TIME =      1.39
      KODE = 2  NTRIAL =   4  T = 288.1727  P =  540000.      V = 0.293865      Q =  0.00000    

      UOS BLOCK RADFRAC1 MODEL: RADFRAC                                           TIME =      1.39

       Convergence iterations:
         OL   ML   IL     Err/Tol
          1    1   10      31177.    
          2    1   10      68872.    
          3    1   10      81799.    
          4    1    8      6978.6    
          5    1    6      3885.5    
          6    1   10     0.56288E+09
          7    1   10     0.34875E+06
          8    1    6      5051.3    
          9    1    3      2119.8    
         10    1    3      253.37    
         11    1    4      27.494    
         12    1    4      5.5232    
         13    1    5      1.2043    
         14    1    3     0.41518    

      UOS BLOCK RADFRAC2 MODEL: RADFRAC                                           TIME =      1.40

       Convergence iterations:
         OL   ML   IL     Err/Tol
          1    1    2      2.7164    
          2    1    2     0.56564E-01

      UTILITY BLOCK HP       MODEL: GENERAL                                       TIME =      1.40
      KODE = 5  NTRIAL =   5  T = 523.1500  P = 3.975372E+06  V =  1.00000      Q =  0.00000    
      KODE = 5  NTRIAL =   5  T = 522.1500  P = 3.908667E+06  V =  0.00000      Q =  0.00000    
      HEATING/COOLING VALUE     1.719324D+06 J/KG

      UTILITY BLOCK MP       MODEL: GENERAL                                       TIME =      1.40
      KODE = 5  NTRIAL =   3  T = 448.1500  P =  892540.      V =  1.00000      Q =  0.00000    
      KODE = 5  NTRIAL =   3  T = 447.1500  P =  871696.      V =  0.00000      Q =  0.00000    
      HEATING/COOLING VALUE     2.034752D+06 J/KG

      UTILITY BLOCK WATER    MODEL: GENERAL                                       TIME =      1.40
      KODE = 2  NTRIAL =   1  T = 293.1500  P =  101325.      V =  0.00000      Q =  0.00000    
      KODE = 3  NTRIAL =   4  T = 373.1407  P =  101325.      V =  0.00000      Q = 6.026911E+06
      KODE = 2  NTRIAL =   1  T = 298.1500  P =  101325.      V =  0.00000      Q =  0.00000    
      KODE = 3  NTRIAL =   4  T = 373.1407  P =  101325.      V =  0.00000      Q = 5.650828E+06
      HEATING/COOLING VALUE    -2.087576D+04 J/KG

      CHECKING PHASE EQUILIBRIUM RESULTS                                          TIME =      1.40

      CHECKING PHASE EQUILIBRIUM RESULTS                                          TIME =      1.41

 STREAM D1      
        SUBSTREAM MIXED     F =  3.055470265272990E-02  T =   128.229040171618      P =   525000.000000000    
                            H =  -23528445.6465514      V =   0.00000000000000      L =   1.00000000000000    
                            ENTROPY =  -3235.68175801570      DENSITY =   1106.35969448091      MW =   50.8183877245009    
        VINYL-01  1.947580311805186E-02  ACETY-01  1.078127730745236E-03  DICHL-01  3.678878103110878E-25
        OXYGE-01  3.836282722902544E-04  HYDRO-01  4.510939339686625E-03  WATER     1.719508966364397E-04
        NITROGEN  3.651082867314146E-03  CARBONMO  3.968568334037118E-04  METHANE   8.863135946016225E-04

 STREAM B1      
        SUBSTREAM MIXED     F =  3.558810290282581E-02  T =   308.674188617254      P =   525000.000000000    
                            H =   5993857.56586937      V =   0.00000000000000      L =   1.00000000000000    
                            ENTROPY =  -1925.26229567289      DENSITY =   892.212940010883      MW =   63.3455504104169    
        VINYL-01  3.476129743566501E-02  ACETY-01  1.513821284469272E-15  DICHL-01  8.267850693185647E-04
        OXYGE-01  5.414503854921320E-31  HYDRO-01  2.227611487890317E-15  WATER     2.039783849528078E-08
        NITROGEN  3.340843804169337E-31  CARBONMO  9.153921929426239E-32  METHANE   1.917748538421592E-26


*** INPUT SPECIFICATION MESSAGES ***

 FLOWSHEET    IS GENERATED BECAUSE OF OTHER CHANGES 04/17/2025   22:02:01:09 
 FLOWSHEET
     BLOCK RADFRAC1 IN=FEED OUT=D1 B1
     BLOCK RADFRAC2 IN=B1 OUT=D2 B2

 CHANGES WERE MADE TO BLOCK        RADFRAC1 04/17/2025   22:02:01:09 
 BLOCK RADFRAC1 RADFRAC
     SUBOBJECTS INTERNALS = CS-1 CS-2
     PARAM NSTAGE=33 ALGORITHM=STANDARD HYDRAULIC=NO MAXOL=25  &
         DAMPING=NONE
     PARAM2 STATIC-DP=YES OLD-SULZER=NO
     COL-CONFIG CONDENSER=TOTAL CA-CONFIG=INT-1
     FEEDS FEED 22
     PRODUCTS B1 33 L / D1 1 L
     P-SPEC 1 525. <kPa>
     COL-SPECS D:F=0.47150566788 MOLE-RR=1.3063727308
     REPORT NOHYDRAULIC
     INTERNALS CS-1 STAGE1=2 STAGE2=5 P-UPDATE=NO TRAYTYPE=SIEVE  &
         NPASS=1 SYSFAC=1.000000000 OVER-DESIGN=1.000000000  &
         WEIR-HT=50.80000000 <mm> DC-CLEAR=38.10000000 <mm>  &
         DC-WTOP-SIDE=143.6690471 <mm> DC-WBOT-SIDE=143.6690471 <mm>  &
         HOLE-DIAM=12.70000000 <mm> HOLE-AREA=.1000000000  &
         FLOOD-METH=GLITSCH6 DECK-THICK=0.134 <IN>  &
         PCT-FLOOD-FA=80.00000000 AER-PARAM-M=1.000000000  &
         MAX-DC-LOAD=GLITSCH MAX-ACC-DP=.0250000000  &
         MAX-PCT-DCB=100.0000000 MAX-PCT-ENT=10.00000000  &
         MIN-WEIR-LD=4.470981863 MAX-WEIR-LD=117.3721131  &
         MIN-PCT-DCA=.1000000000
     TRAY-SIZE 1 2 5 SIEVE
     INTERNALS CS-2 STAGE1=6 STAGE2=32 P-UPDATE=NO  &
         TRAYTYPE=SIEVE NPASS=1 SYSFAC=1.000000000  &
         OVER-DESIGN=1.000000000 WEIR-HT=50.80000000 <mm>  &
         DC-CLEAR=38.10000000 <mm> DC-WTOP-SIDE=143.6806962 <mm>  &
         DC-WBOT-SIDE=143.6806962 <mm> HOLE-DIAM=12.70000000 <mm>  &
         HOLE-AREA=.1000000000 FLOOD-METH=GLITSCH6  &
         DECK-THICK=0.134 <IN> PCT-FLOOD-FA=80.00000000  &
         AER-PARAM-M=1.000000000 MAX-DC-LOAD=GLITSCH  &
         MAX-ACC-DP=.0250000000 MAX-PCT-DCB=100.0000000  &
         MAX-PCT-ENT=10.00000000 MIN-WEIR-LD=4.470981863  &
         MAX-WEIR-LD=117.3721131 MIN-PCT-DCA=.1000000000
     TRAY-SIZE 2 6 32 SIEVE
     UTILITIES COND-UTIL=REFRIG4 REB-UTIL=LP

 CHANGES WERE MADE TO BLOCK        RADFRAC2 04/17/2025   22:02:01:09 
 BLOCK RADFRAC2 RADFRAC
     SUBOBJECTS INTERNALS = CS-1 CS-2
     PARAM NSTAGE=41 ALGORITHM=STANDARD HYDRAULIC=NO MAXOL=25  &
         DAMPING=NONE
     PARAM2 STATIC-DP=YES OLD-SULZER=NO
     COL-CONFIG CONDENSER=TOTAL CA-CONFIG=INT-1
     FEEDS B1 29
     PRODUCTS B2 41 L / D2 1 L
     P-SPEC 1 213. <kPa>
     COL-SPECS D:F=0.89839975954 MOLE-RR=0.91423030973
     REPORT NOHYDRAULIC
     INTERNALS CS-1 STAGE1=2 STAGE2=26 P-UPDATE=NO  &
         TRAYTYPE=SIEVE NPASS=1 SYSFAC=1.000000000  &
         OVER-DESIGN=1.000000000 WEIR-HT=50.80000000 <mm>  &
         DC-CLEAR=38.10000000 <mm> DC-WTOP-SIDE=140.8966832 <mm>  &
         DC-WBOT-SIDE=140.8966832 <mm> HOLE-DIAM=12.70000000 <mm>  &
         HOLE-AREA=.1000000000 FLOOD-METH=GLITSCH6  &
         DECK-THICK=0.134 <IN> PCT-FLOOD-FA=80.00000000  &
         AER-PARAM-M=1.000000000 MAX-DC-LOAD=GLITSCH  &
         MAX-ACC-DP=.0250000000 MAX-PCT-DCB=100.0000000  &
         MAX-PCT-ENT=10.00000000 MIN-WEIR-LD=4.470981863  &
         MAX-WEIR-LD=117.3721131 MIN-PCT-DCA=.1000000000
     TRAY-SIZE 1 2 26 SIEVE
     INTERNALS CS-2 STAGE1=27 STAGE2=40 P-UPDATE=NO  &
         TRAYTYPE=SIEVE NPASS=1 SYSFAC=1.000000000  &
         OVER-DESIGN=1.000000000 WEIR-HT=50.80000000 <mm>  &
         DC-CLEAR=38.10000000 <mm> DC-WTOP-SIDE=136.2279193 <mm>  &
         DC-WBOT-SIDE=136.2279193 <mm> HOLE-DIAM=12.70000000 <mm>  &
         HOLE-AREA=.1000000000 FLOOD-METH=GLITSCH6  &
         DECK-THICK=0.134 <IN> PCT-FLOOD-FA=80.00000000  &
         AER-PARAM-M=1.000000000 MAX-DC-LOAD=GLITSCH  &
         MAX-ACC-DP=.0250000000 MAX-PCT-DCB=100.0000000  &
         MAX-PCT-ENT=10.00000000 MIN-WEIR-LD=4.470981863  &
         MAX-WEIR-LD=117.3721131 MIN-PCT-DCA=.1000000000
     TRAY-SIZE 2 27 40 SIEVE
     UTILITIES COND-UTIL=REFRIG1 REB-UTIL=LP

 PDF updated                                                                      TIME =      3.46
 THIS COPY OF ASPEN PLUS LICENSED TO JOHNS HOPKINS UNIVERSITY        
 
 


Calculations begin                                                              time      3.81


      UOS BLOCK RADFRAC1 MODEL: RADFRAC                                           TIME =      3.81

       Convergence iterations:
         OL   ML   IL     Err/Tol
          1    1    5      1.5796    
          2    1    3     0.10632    

      UOS BLOCK RADFRAC2 MODEL: RADFRAC                                           TIME =      3.81

       Convergence iterations:
         OL   ML   IL     Err/Tol
          1    1    2     0.17065    

      CHECKING PHASE EQUILIBRIUM RESULTS                                          TIME =      3.82

      CHECKING PHASE EQUILIBRIUM RESULTS                                          TIME =      3.82

 STREAM D1      
        SUBSTREAM MIXED     F =  3.118670770892928E-02  T =   128.703857382828      P =   525000.000000000    
                            H =  -23225711.8869566      V =   0.00000000000000      L =   1.00000000000000    
                            ENTROPY =  -3234.00575386673      DENSITY =   1106.79759813345      MW =   51.0550852152639    
        VINYL-01  2.010780621720766E-02  ACETY-01  1.078127729637493E-03  DICHL-01  4.519876529990760E-25
        OXYGE-01  3.836282718960346E-04  HYDRO-01  4.510939335051365E-03  WATER     1.719528648877338E-04
        NITROGEN  3.651082863562260E-03  CARBONMO  3.968568329958980E-04  METHANE   8.863135936908385E-04

 STREAM B1      
        SUBSTREAM MIXED     F =  3.495609784662643E-02  T =   308.688195097897      P =   525000.000000000    
                            H =   5925064.58054039      V =   0.00000000000000      L =   1.00000000000000    
                            ENTROPY =  -1925.55309717472      DENSITY =   892.345622455873      MW =   63.3608671970334    
        VINYL-01  3.412929434714091E-02  ACETY-01  1.363097572144875E-15  DICHL-01  8.267850700716333E-04
        OXYGE-01  4.874458472557345E-31  HYDRO-01  2.005839104950895E-15  WATER     1.842941051835297E-08
        NITROGEN  3.007687997107806E-31  CARBONMO  8.241021883940183E-32  METHANE   1.726458280506212E-26

 STREAM D2      
        SUBSTREAM MIXED     F =  3.140454989986591E-02  T =   278.651309445076      P =   213000.000000000    
                            H =   6292164.03430777      V =   0.00000000000000      L =   1.00000000000000    
                            ENTROPY =  -2093.65058586688      DENSITY =   936.074119885753      MW =   62.4984938955027    
        VINYL-01  3.140453147045214E-02  ACETY-01  1.363097572144862E-15  DICHL-01  5.736417524340077E-30
        OXYGE-01   0.00000000000000      HYDRO-01  2.005839104950875E-15  WATER     1.842941039599764E-08
        NITROGEN   0.00000000000000      CARBONMO   0.00000000000000      METHANE    0.00000000000000    

 STREAM B2      
        SUBSTREAM MIXED     F =  3.551547946760519E-03  T =   285.935870979740      P =   213000.000000000    
                            H =  -31974791.1240606      V =   0.00000000000000      L =   1.00000000000000    
                            ENTROPY =  -2257.55304824985      DENSITY =   1005.34462447469      MW =   70.9864000030703    
        VINYL-01  2.724762876688686E-03  ACETY-01  3.710007598711596E-32  DICHL-01  8.267850700717109E-04
        OXYGE-01   0.00000000000000      HYDRO-01  2.987063498114339E-32  WATER     1.223551489747152E-16
        NITROGEN   0.00000000000000      CARBONMO   0.00000000000000      METHANE    0.00000000000000    


*** INPUT SPECIFICATION MESSAGES ***

 FLOWSHEET    IS GENERATED BECAUSE OF OTHER CHANGES 04/17/2025   22:02:03:09 
 FLOWSHEET
     BLOCK RADFRAC1 IN=FEED OUT=D1 B1
     BLOCK RADFRAC2 IN=B1 OUT=D2 B2

 CHANGES WERE MADE TO BLOCK        RADFRAC1 04/17/2025   22:02:03:09 
 BLOCK RADFRAC1 RADFRAC
     SUBOBJECTS INTERNALS = CS-1 CS-2
     PARAM NSTAGE=32 ALGORITHM=STANDARD HYDRAULIC=NO MAXOL=25  &
         DAMPING=NONE
     PARAM2 STATIC-DP=YES OLD-SULZER=NO
     COL-CONFIG CONDENSER=TOTAL CA-CONFIG=INT-1
     FEEDS FEED 5
     PRODUCTS B1 32 L / D1 1 L
     P-SPEC 1 525. <kPa>
     COL-SPECS D:F=0.47037891246 MOLE-RR=0.6950280655
     REPORT NOHYDRAULIC
     INTERNALS CS-1 STAGE1=2 STAGE2=5 P-UPDATE=NO TRAYTYPE=SIEVE  &
         NPASS=1 SYSFAC=1.000000000 OVER-DESIGN=1.000000000  &
         WEIR-HT=50.80000000 <mm> DC-CLEAR=38.10000000 <mm>  &
         DC-WTOP-SIDE=144.0336709 <mm> DC-WBOT-SIDE=144.0336709 <mm>  &
         HOLE-DIAM=12.70000000 <mm> HOLE-AREA=.1000000000  &
         FLOOD-METH=GLITSCH6 DECK-THICK=0.134 <IN>  &
         PCT-FLOOD-FA=80.00000000 AER-PARAM-M=1.000000000  &
         MAX-DC-LOAD=GLITSCH MAX-ACC-DP=.0250000000  &
         MAX-PCT-DCB=100.0000000 MAX-PCT-ENT=10.00000000  &
         MIN-WEIR-LD=4.470981863 MAX-WEIR-LD=117.3721131  &
         MIN-PCT-DCA=.1000000000
     TRAY-SIZE 1 2 5 SIEVE
     INTERNALS CS-2 STAGE1=6 STAGE2=31 P-UPDATE=NO  &
         TRAYTYPE=SIEVE NPASS=1 SYSFAC=1.000000000  &
         OVER-DESIGN=1.000000000 WEIR-HT=50.80000000 <mm>  &
         DC-CLEAR=38.10000000 <mm> DC-WTOP-SIDE=144.0416127 <mm>  &
         DC-WBOT-SIDE=144.0416127 <mm> HOLE-DIAM=12.70000000 <mm>  &
         HOLE-AREA=.1000000000 FLOOD-METH=GLITSCH6  &
         DECK-THICK=0.134 <IN> PCT-FLOOD-FA=80.00000000  &
         AER-PARAM-M=1.000000000 MAX-DC-LOAD=GLITSCH  &
         MAX-ACC-DP=.0250000000 MAX-PCT-DCB=100.0000000  &
         MAX-PCT-ENT=10.00000000 MIN-WEIR-LD=4.470981863  &
         MAX-WEIR-LD=117.3721131 MIN-PCT-DCA=.1000000000
     TRAY-SIZE 2 6 31 SIEVE
     UTILITIES COND-UTIL=REFRIG4 REB-UTIL=LP

 CHANGES WERE MADE TO BLOCK        RADFRAC2 04/17/2025   22:02:03:09 
 BLOCK RADFRAC2 RADFRAC
     SUBOBJECTS INTERNALS = CS-1 CS-2
     PARAM NSTAGE=35 ALGORITHM=STANDARD HYDRAULIC=NO MAXOL=25  &
         DAMPING=NONE
     PARAM2 STATIC-DP=YES OLD-SULZER=NO
     COL-CONFIG CONDENSER=TOTAL CA-CONFIG=INT-1
     FEEDS B1 19
     PRODUCTS B2 35 L / D2 1 L
     P-SPEC 1 213. <kPa>
     COL-SPECS D:F=0.90624384379 MOLE-RR=0.74131614642
     REPORT NOHYDRAULIC
     INTERNALS CS-1 STAGE1=2 STAGE2=26 P-UPDATE=NO  &
         TRAYTYPE=SIEVE NPASS=1 SYSFAC=1.000000000  &
         OVER-DESIGN=1.000000000 WEIR-HT=50.80000000 <mm>  &
         DC-CLEAR=38.10000000 <mm> DC-WTOP-SIDE=136.7798221 <mm>  &
         DC-WBOT-SIDE=136.7798221 <mm> HOLE-DIAM=12.70000000 <mm>  &
         HOLE-AREA=.1000000000 FLOOD-METH=GLITSCH6  &
         DECK-THICK=0.134 <IN> PCT-FLOOD-FA=80.00000000  &
         AER-PARAM-M=1.000000000 MAX-DC-LOAD=GLITSCH  &
         MAX-ACC-DP=.0250000000 MAX-PCT-DCB=100.0000000  &
         MAX-PCT-ENT=10.00000000 MIN-WEIR-LD=4.470981863  &
         MAX-WEIR-LD=117.3721131 MIN-PCT-DCA=.1000000000
     TRAY-SIZE 1 2 26 SIEVE
     INTERNALS CS-2 STAGE1=27 STAGE2=34 P-UPDATE=NO  &
         TRAYTYPE=SIEVE NPASS=1 SYSFAC=1.000000000  &
         OVER-DESIGN=1.000000000 WEIR-HT=50.80000000 <mm>  &
         DC-CLEAR=38.10000000 <mm> DC-WTOP-SIDE=136.7734482 <mm>  &
         DC-WBOT-SIDE=136.7734482 <mm> HOLE-DIAM=12.70000000 <mm>  &
         HOLE-AREA=.1000000000 FLOOD-METH=GLITSCH6  &
         DECK-THICK=0.134 <IN> PCT-FLOOD-FA=80.00000000  &
         AER-PARAM-M=1.000000000 MAX-DC-LOAD=GLITSCH  &
         MAX-ACC-DP=.0250000000 MAX-PCT-DCB=100.0000000  &
         MAX-PCT-ENT=10.00000000 MIN-WEIR-LD=4.470981863  &
         MAX-WEIR-LD=117.3721131 MIN-PCT-DCA=.1000000000
     TRAY-SIZE 2 27 34 SIEVE
     UTILITIES COND-UTIL=REFRIG1 REB-UTIL=LP

 PDF updated                                                                      TIME =      5.39
 THIS COPY OF ASPEN PLUS LICENSED TO JOHNS HOPKINS UNIVERSITY        
 
 


Calculations begin                                                              time      5.70


      UOS BLOCK RADFRAC1 MODEL: RADFRAC                                           TIME =      5.70

       Convergence iterations:
         OL   ML   IL     Err/Tol
          1    1    5      20.468    
          2    1    3      1.0377    
          3    1    2     0.21537    

      UOS BLOCK RADFRAC2 MODEL: RADFRAC                                           TIME =      5.71

       Convergence iterations:
         OL   ML   IL     Err/Tol
          1    1    3      1.9544    
          2    1    2     0.50772E-01

      CHECKING PHASE EQUILIBRIUM RESULTS                                          TIME =      5.71

      CHECKING PHASE EQUILIBRIUM RESULTS                                          TIME =      5.71

 STREAM D2      
        SUBSTREAM MIXED     F =  3.174628789809111E-02  T =   278.651356309846      P =   213000.000000000    
                            H =   6292323.96427857      V =   0.00000000000000      L =   1.00000000000000    
                            ENTROPY =  -2093.65071934599      DENSITY =   936.073956427139      MW =   62.4985199184392    
        VINYL-01  3.174628783988370E-02  ACETY-01   0.00000000000000      DICHL-01  6.171813165844160E-20
        OXYGE-01   0.00000000000000      HYDRO-01   0.00000000000000      WATER     5.820741903144045E-11
        NITROGEN   0.00000000000000      CARBONMO   0.00000000000000      METHANE    0.00000000000000    

 STREAM B2      
        SUBSTREAM MIXED     F =  3.284336713189041E-03  T =   286.632680815893      P =   213000.000000000    
                            H =  -35072820.7500425      V =   0.00000000000000      L =   1.00000000000000    
                            ENTROPY =  -2271.19308277945      DENSITY =   1010.41620017221      MW =   71.6766042162248    
        VINYL-01  2.457584386622969E-03  ACETY-01   0.00000000000000      DICHL-01  8.267523265660725E-04
        OXYGE-01   0.00000000000000      HYDRO-01   0.00000000000000      WATER     3.031954838115094E-21
        NITROGEN   0.00000000000000      CARBONMO   0.00000000000000      METHANE    0.00000000000000    


*** INPUT SPECIFICATION MESSAGES ***

 FLOWSHEET    IS GENERATED BECAUSE OF OTHER CHANGES 04/17/2025   22:02:04:99 
 FLOWSHEET
     BLOCK RADFRAC1 IN=FEED OUT=D1 B1
     BLOCK RADFRAC2 IN=B1 OUT=D2 B2

 CHANGES WERE MADE TO BLOCK        RADFRAC1 04/17/2025   22:02:04:99 
 BLOCK RADFRAC1 RADFRAC
     SUBOBJECTS INTERNALS = CS-1 CS-2
     PARAM NSTAGE=35 ALGORITHM=STANDARD HYDRAULIC=NO MAXOL=25  &
         DAMPING=NONE
     PARAM2 STATIC-DP=YES OLD-SULZER=NO
     COL-CONFIG CONDENSER=TOTAL CA-CONFIG=INT-1
     FEEDS FEED 25
     PRODUCTS B1 35 L / D1 1 L
     P-SPEC 1 525. <kPa>
     COL-SPECS D:F=0.46715948486 MOLE-RR=1.1857947564
     REPORT NOHYDRAULIC
     INTERNALS CS-1 STAGE1=2 STAGE2=5 P-UPDATE=NO TRAYTYPE=SIEVE  &
         NPASS=1 SYSFAC=1.000000000 OVER-DESIGN=1.000000000  &
         WEIR-HT=50.80000000 <mm> DC-CLEAR=38.10000000 <mm>  &
         DC-WTOP-SIDE=118.4528720 <mm> DC-WBOT-SIDE=118.4528720 <mm>  &
         HOLE-DIAM=12.70000000 <mm> HOLE-AREA=.1000000000  &
         FLOOD-METH=GLITSCH6 DECK-THICK=0.134 <IN>  &
         PCT-FLOOD-FA=80.00000000 AER-PARAM-M=1.000000000  &
         MAX-DC-LOAD=GLITSCH MAX-ACC-DP=.0250000000  &
         MAX-PCT-DCB=100.0000000 MAX-PCT-ENT=10.00000000  &
         MIN-WEIR-LD=4.470981863 MAX-WEIR-LD=117.3721131  &
         MIN-PCT-DCA=.1000000000
     TRAY-SIZE 1 2 5 SIEVE
     INTERNALS CS-2 STAGE1=6 STAGE2=34 P-UPDATE=NO  &
         TRAYTYPE=SIEVE NPASS=1 SYSFAC=1.000000000  &
         OVER-DESIGN=1.000000000 WEIR-HT=50.80000000 <mm>  &
         DC-CLEAR=38.10000000 <mm> DC-WTOP-SIDE=120.9835364 <mm>  &
         DC-WBOT-SIDE=120.9835364 <mm> HOLE-DIAM=12.70000000 <mm>  &
         HOLE-AREA=.1000000000 FLOOD-METH=GLITSCH6  &
         DECK-THICK=0.134 <IN> PCT-FLOOD-FA=80.00000000  &
         AER-PARAM-M=1.000000000 MAX-DC-LOAD=GLITSCH  &
         MAX-ACC-DP=.0250000000 MAX-PCT-DCB=100.0000000  &
         MAX-PCT-ENT=10.00000000 MIN-WEIR-LD=4.470981863  &
         MAX-WEIR-LD=117.3721131 MIN-PCT-DCA=.1000000000
     TRAY-SIZE 2 6 34 SIEVE
     UTILITIES COND-UTIL=REFRIG4 REB-UTIL=LP

 CHANGES WERE MADE TO BLOCK        RADFRAC2 04/17/2025   22:02:04:99 
 BLOCK RADFRAC2 RADFRAC
     SUBOBJECTS INTERNALS = CS-1 CS-2
     PARAM NSTAGE=40 ALGORITHM=STANDARD HYDRAULIC=NO MAXOL=25  &
         DAMPING=NONE
     PARAM2 STATIC-DP=YES OLD-SULZER=NO
     COL-CONFIG CONDENSER=TOTAL CA-CONFIG=INT-1
     FEEDS B1 13
     PRODUCTS B2 40 L / D2 1 L
     P-SPEC 1 213. <kPa>
     COL-SPECS D:F=0.89592289759 MOLE-RR=1.4663060147
     REPORT NOHYDRAULIC
     INTERNALS CS-1 STAGE1=2 STAGE2=26 P-UPDATE=NO  &
         TRAYTYPE=SIEVE NPASS=1 SYSFAC=1.000000000  &
         OVER-DESIGN=1.000000000 WEIR-HT=50.80000000 <mm>  &
         DC-CLEAR=38.10000000 <mm> DC-WTOP-SIDE=130.8784364 <mm>  &
         DC-WBOT-SIDE=130.8784364 <mm> HOLE-DIAM=12.70000000 <mm>  &
         HOLE-AREA=.1000000000 FLOOD-METH=GLITSCH6  &
         DECK-THICK=0.134 <IN> PCT-FLOOD-FA=80.00000000  &
         AER-PARAM-M=1.000000000 MAX-DC-LOAD=GLITSCH  &
         MAX-ACC-DP=.0250000000 MAX-PCT-DCB=100.0000000  &
         MAX-PCT-ENT=10.00000000 MIN-WEIR-LD=4.470981863  &
         MAX-WEIR-LD=117.3721131 MIN-PCT-DCA=.1000000000
     TRAY-SIZE 1 2 26 SIEVE
     INTERNALS CS-2 STAGE1=27 STAGE2=39 P-UPDATE=NO  &
         TRAYTYPE=SIEVE NPASS=1 SYSFAC=1.000000000  &
         OVER-DESIGN=1.000000000 WEIR-HT=50.80000000 <mm>  &
         DC-CLEAR=38.10000000 <mm> DC-WTOP-SIDE=125.7556039 <mm>  &
         DC-WBOT-SIDE=125.7556039 <mm> HOLE-DIAM=12.70000000 <mm>  &
         HOLE-AREA=.1000000000 FLOOD-METH=GLITSCH6  &
         DECK-THICK=0.134 <IN> PCT-FLOOD-FA=80.00000000  &
         AER-PARAM-M=1.000000000 MAX-DC-LOAD=GLITSCH  &
         MAX-ACC-DP=.0250000000 MAX-PCT-DCB=100.0000000  &
         MAX-PCT-ENT=10.00000000 MIN-WEIR-LD=4.470981863  &
         MAX-WEIR-LD=117.3721131 MIN-PCT-DCA=.1000000000
     TRAY-SIZE 2 27 39 SIEVE
     UTILITIES COND-UTIL=REFRIG1 REB-UTIL=LP

 PDF updated                                                                      TIME =      7.25
 THIS COPY OF ASPEN PLUS LICENSED TO JOHNS HOPKINS UNIVERSITY        
 
 


Calculations begin                                                              time      7.55


      UOS BLOCK RADFRAC1 MODEL: RADFRAC                                           TIME =      7.55

       Convergence iterations:
         OL   ML   IL     Err/Tol
          1    1   10     0.10028E+06
          2    1    9      10965.    
          3    1    5      5151.5    
          4    1    5      2027.0    
          5    1    4      811.99    
          6    1    4      509.14    
          7    1    3      245.41    
          8    1    4      50.655    
          9    1    4      81.551    
         10    1    3      54.550    
         11    1    3      25.717    
         12    1    3      8.4282    
         13    1    4      4.9491    
         14    1    4      5.4616    
         15    1    3      2.9591    
         16    1    3      2.1477    
         17    1    3     0.86378    

      UOS BLOCK RADFRAC2 MODEL: RADFRAC                                           TIME =      7.57

       Convergence iterations:
         OL   ML   IL     Err/Tol
          1    1    3      2.6778    
          2    1    2     0.49753E-01

      CHECKING PHASE EQUILIBRIUM RESULTS                                          TIME =      7.58

      CHECKING PHASE EQUILIBRIUM RESULTS                                          TIME =      7.58

 STREAM D2      
        SUBSTREAM MIXED     F =  3.157551829626362E-02  T =   278.651220995712      P =   213000.000000000    
                            H =   6291862.15707168      V =   0.00000000000000      L =   1.00000000000000    
                            ENTROPY =  -2093.65056932482      DENSITY =   936.074428405816      MW =   62.4984447755724    
        VINYL-01  3.157546489972760E-02  ACETY-01  1.663391077260306E-14  DICHL-01  1.791518645269670E-16
        OXYGE-01   0.00000000000000      HYDRO-01  2.655891680103972E-14  WATER     5.339649265668307E-08
        NITROGEN   0.00000000000000      CARBONMO   0.00000000000000      METHANE    0.00000000000000    

 STREAM B2      
        SUBSTREAM MIXED     F =  3.668048288763506E-03  T =   285.669263971121      P =   213000.000000000    
                            H =  -30764025.4616105      V =   0.00000000000000      L =   1.00000000000000    
                            ENTROPY =  -2252.18456758909      DENSITY =   1003.33988980648      MW =   70.7168180776934    
        VINYL-01  2.841263180207220E-03  ACETY-01  2.711397723134530E-48  DICHL-01  8.267851085562861E-04
        OXYGE-01   0.00000000000000      HYDRO-01  1.207512027981048E-48  WATER     1.563724520246599E-24
        NITROGEN   0.00000000000000      CARBONMO   0.00000000000000      METHANE    0.00000000000000    


*** INPUT SPECIFICATION MESSAGES ***

 FLOWSHEET    IS GENERATED BECAUSE OF OTHER CHANGES 04/17/2025   22:02:06:99 
 FLOWSHEET
     BLOCK RADFRAC1 IN=FEED OUT=D1 B1
     BLOCK RADFRAC2 IN=B1 OUT=D2 B2

 CHANGES WERE MADE TO BLOCK        RADFRAC1 04/17/2025   22:02:06:99 
 BLOCK RADFRAC1 RADFRAC
     SUBOBJECTS INTERNALS = CS-1 CS-2
     PARAM NSTAGE=31 ALGORITHM=STANDARD HYDRAULIC=NO MAXOL=25  &
         DAMPING=NONE
     PARAM2 STATIC-DP=YES OLD-SULZER=NO
     COL-CONFIG CONDENSER=TOTAL CA-CONFIG=INT-1
     FEEDS FEED 9
     PRODUCTS B1 31 L / D1 1 L
     P-SPEC 1 525. <kPa>
     COL-SPECS D:F=0.46591529206 MOLE-RR=0.25158567334
     REPORT NOHYDRAULIC
     INTERNALS CS-1 STAGE1=2 STAGE2=5 P-UPDATE=NO TRAYTYPE=SIEVE  &
         NPASS=1 SYSFAC=1.000000000 OVER-DESIGN=1.000000000  &
         WEIR-HT=50.80000000 <mm> DC-CLEAR=38.10000000 <mm>  &
         DC-WTOP-SIDE=138.0837031 <mm> DC-WBOT-SIDE=138.0837031 <mm>  &
         HOLE-DIAM=12.70000000 <mm> HOLE-AREA=.1000000000  &
         FLOOD-METH=GLITSCH6 DECK-THICK=0.134 <IN>  &
         PCT-FLOOD-FA=80.00000000 AER-PARAM-M=1.000000000  &
         MAX-DC-LOAD=GLITSCH MAX-ACC-DP=.0250000000  &
         MAX-PCT-DCB=100.0000000 MAX-PCT-ENT=10.00000000  &
         MIN-WEIR-LD=4.470981863 MAX-WEIR-LD=117.3721131  &
         MIN-PCT-DCA=.1000000000
     TRAY-SIZE 1 2 5 SIEVE
     INTERNALS CS-2 STAGE1=6 STAGE2=30 P-UPDATE=NO  &
         TRAYTYPE=SIEVE NPASS=1 SYSFAC=1.000000000  &
         OVER-DESIGN=1.000000000 WEIR-HT=50.80000000 <mm>  &
         DC-CLEAR=38.10000000 <mm> DC-WTOP-SIDE=138.0908212 <mm>  &
         DC-WBOT-SIDE=138.0908212 <mm> HOLE-DIAM=12.70000000 <mm>  &
         HOLE-AREA=.1000000000 FLOOD-METH=GLITSCH6  &
         DECK-THICK=0.134 <IN> PCT-FLOOD-FA=80.00000000  &
         AER-PARAM-M=1.000000000 MAX-DC-LOAD=GLITSCH  &
         MAX-ACC-DP=.0250000000 MAX-PCT-DCB=100.0000000  &
         MAX-PCT-ENT=10.00000000 MIN-WEIR-LD=4.470981863  &
         MAX-WEIR-LD=117.3721131 MIN-PCT-DCA=.1000000000
     TRAY-SIZE 2 6 30 SIEVE
     UTILITIES COND-UTIL=REFRIG4 REB-UTIL=LP

 CHANGES WERE MADE TO BLOCK        RADFRAC2 04/17/2025   22:02:06:99 
 BLOCK RADFRAC2 RADFRAC
     SUBOBJECTS INTERNALS = CS-1 CS-2
     PARAM NSTAGE=40 ALGORITHM=STANDARD HYDRAULIC=NO MAXOL=25  &
         DAMPING=NONE
     PARAM2 STATIC-DP=YES OLD-SULZER=NO
     COL-CONFIG CONDENSER=TOTAL CA-CONFIG=INT-1
     FEEDS B1 13
     PRODUCTS B2 40 L / D2 1 L
     P-SPEC 1 213. <kPa>
     COL-SPECS D:F=0.89639242547 MOLE-RR=0.98847188584
     REPORT NOHYDRAULIC
     INTERNALS CS-1 STAGE1=2 STAGE2=26 P-UPDATE=NO  &
         TRAYTYPE=SIEVE NPASS=1 SYSFAC=1.000000000  &
         OVER-DESIGN=1.000000000 WEIR-HT=50.80000000 <mm>  &
         DC-CLEAR=38.10000000 <mm> DC-WTOP-SIDE=156.6542867 <mm>  &
         DC-WBOT-SIDE=156.6542867 <mm> HOLE-DIAM=12.70000000 <mm>  &
         HOLE-AREA=.1000000000 FLOOD-METH=GLITSCH6  &
         DECK-THICK=0.134 <IN> PCT-FLOOD-FA=80.00000000  &
         AER-PARAM-M=1.000000000 MAX-DC-LOAD=GLITSCH  &
         MAX-ACC-DP=.0250000000 MAX-PCT-DCB=100.0000000  &
         MAX-PCT-ENT=10.00000000 MIN-WEIR-LD=4.470981863  &
         MAX-WEIR-LD=117.3721131 MIN-PCT-DCA=.1000000000
     TRAY-SIZE 1 2 26 SIEVE
     INTERNALS CS-2 STAGE1=27 STAGE2=39 P-UPDATE=NO  &
         TRAYTYPE=SIEVE NPASS=1 SYSFAC=1.000000000  &
         OVER-DESIGN=1.000000000 WEIR-HT=50.80000000 <mm>  &
         DC-CLEAR=38.10000000 <mm> DC-WTOP-SIDE=152.7109405 <mm>  &
         DC-WBOT-SIDE=152.7109405 <mm> HOLE-DIAM=12.70000000 <mm>  &
         HOLE-AREA=.1000000000 FLOOD-METH=GLITSCH6  &
         DECK-THICK=0.134 <IN> PCT-FLOOD-FA=80.00000000  &
         AER-PARAM-M=1.000000000 MAX-DC-LOAD=GLITSCH  &
         MAX-ACC-DP=.0250000000 MAX-PCT-DCB=100.0000000  &
         MAX-PCT-ENT=10.00000000 MIN-WEIR-LD=4.470981863  &
         MAX-WEIR-LD=117.3721131 MIN-PCT-DCA=.1000000000
     TRAY-SIZE 2 27 39 SIEVE
     UTILITIES COND-UTIL=REFRIG1 REB-UTIL=LP

 PDF updated                                                                      TIME =      9.29
 THIS COPY OF ASPEN PLUS LICENSED TO JOHNS HOPKINS UNIVERSITY        
 
 


Calculations begin                                                              time      9.54


      UOS BLOCK RADFRAC1 MODEL: RADFRAC                                           TIME =      9.54

       Convergence iterations:
         OL   ML   IL     Err/Tol
          1    1    6      30.481    
          2    1    3      2.1499    
          3    1    2     0.50828    

      UOS BLOCK RADFRAC2 MODEL: RADFRAC                                           TIME =      9.54

       Convergence iterations:
         OL   ML   IL     Err/Tol
          1    1    3     0.80557    

      CHECKING PHASE EQUILIBRIUM RESULTS                                          TIME =      9.54

      CHECKING PHASE EQUILIBRIUM RESULTS                                          TIME =      9.55

 STREAM D2      
        SUBSTREAM MIXED     F =  3.166583421237534E-02  T =   278.649752215795      P =   213000.000000000    
                            H =   6286841.90381959      V =   0.00000000000000      L =   1.00000000000000    
                            ENTROPY =  -2093.65551201922      DENSITY =   936.079555591163      MW =   62.4976278903066    
        VINYL-01  3.166519915526669E-02  ACETY-01   0.00000000000000      DICHL-01  1.546735970726644E-15
        OXYGE-01   0.00000000000000      HYDRO-01   0.00000000000000      WATER     6.350571070911853E-07
        NITROGEN   0.00000000000000      CARBONMO   0.00000000000000      METHANE    0.00000000000000    

 STREAM B2      
        SUBSTREAM MIXED     F =  3.660026775095804E-03  T =   285.686815154493      P =   213000.000000000    
                            H =  -30844938.9168451      V =   0.00000000000000      L =   1.00000000000000    
                            ENTROPY =  -2252.54480367573      DENSITY =   1003.47449551109      MW =   70.7348266612813    
        VINYL-01  2.833241976249990E-03  ACETY-01   0.00000000000000      DICHL-01  8.267847988458135E-04
        OXYGE-01   0.00000000000000      HYDRO-01   0.00000000000000      WATER     3.671052731059941E-23
        NITROGEN   0.00000000000000      CARBONMO   0.00000000000000      METHANE    0.00000000000000    


*** INPUT SPECIFICATION MESSAGES ***

 FLOWSHEET    IS GENERATED BECAUSE OF OTHER CHANGES 04/17/2025   22:02:08:99 
 FLOWSHEET
     BLOCK RADFRAC1 IN=FEED OUT=D1 B1
     BLOCK RADFRAC2 IN=B1 OUT=D2 B2

 CHANGES WERE MADE TO BLOCK        RADFRAC1 04/17/2025   22:02:08:99 
 BLOCK RADFRAC1 RADFRAC
     SUBOBJECTS INTERNALS = CS-1 CS-2
     PARAM NSTAGE=35 ALGORITHM=STANDARD HYDRAULIC=NO MAXOL=25  &
         DAMPING=NONE
     PARAM2 STATIC-DP=YES OLD-SULZER=NO
     COL-CONFIG CONDENSER=TOTAL CA-CONFIG=INT-1
     FEEDS FEED 5
     PRODUCTS B1 35 L / D1 1 L
     P-SPEC 1 525. <kPa>
     COL-SPECS D:F=0.46726466039 MOLE-RR=1.1857947564
     REPORT NOHYDRAULIC
     INTERNALS CS-1 STAGE1=2 STAGE2=5 P-UPDATE=NO TRAYTYPE=SIEVE  &
         NPASS=1 SYSFAC=1.000000000 OVER-DESIGN=1.000000000  &
         WEIR-HT=50.80000000 <mm> DC-CLEAR=38.10000000 <mm>  &
         DC-WTOP-SIDE=91.17000000 <mm> DC-WBOT-SIDE=91.17000000 <mm>  &
         HOLE-DIAM=12.70000000 <mm> HOLE-AREA=.1000000000  &
         FLOOD-METH=GLITSCH6 DECK-THICK=0.134 <IN>  &
         PCT-FLOOD-FA=80.00000000 AER-PARAM-M=1.000000000  &
         MAX-DC-LOAD=GLITSCH MAX-ACC-DP=.0250000000  &
         MAX-PCT-DCB=100.0000000 MAX-PCT-ENT=10.00000000  &
         MIN-WEIR-LD=4.470981863 MAX-WEIR-LD=117.3721131  &
         MIN-PCT-DCA=.1000000000
     TRAY-SIZE 1 2 5 SIEVE
     INTERNALS CS-2 STAGE1=6 STAGE2=34 P-UPDATE=NO  &
         TRAYTYPE=SIEVE NPASS=1 SYSFAC=1.000000000  &
         OVER-DESIGN=1.000000000 WEIR-HT=50.80000000 <mm>  &
         DC-CLEAR=38.10000000 <mm> DC-WTOP-SIDE=105.6397521 <mm>  &
         DC-WBOT-SIDE=105.6397521 <mm> HOLE-DIAM=12.70000000 <mm>  &
         HOLE-AREA=.1000000000 FLOOD-METH=GLITSCH6  &
         DECK-THICK=0.134 <IN> PCT-FLOOD-FA=80.00000000  &
         AER-PARAM-M=1.000000000 MAX-DC-LOAD=GLITSCH  &
         MAX-ACC-DP=.0250000000 MAX-PCT-DCB=100.0000000  &
         MAX-PCT-ENT=10.00000000 MIN-WEIR-LD=4.470981863  &
         MAX-WEIR-LD=117.3721131 MIN-PCT-DCA=.1000000000
     TRAY-SIZE 2 6 34 SIEVE
     UTILITIES COND-UTIL=REFRIG4 REB-UTIL=LP

 CHANGES WERE MADE TO BLOCK        RADFRAC2 04/17/2025   22:02:08:99 
 BLOCK RADFRAC2 RADFRAC
     SUBOBJECTS INTERNALS = CS-1 CS-2
     PARAM NSTAGE=40 ALGORITHM=STANDARD HYDRAULIC=NO MAXOL=25  &
         DAMPING=NONE
     PARAM2 STATIC-DP=YES OLD-SULZER=NO
     COL-CONFIG CONDENSER=TOTAL CA-CONFIG=INT-1
     FEEDS B1 15
     PRODUCTS B2 40 L / D2 1 L
     P-SPEC 1 213. <kPa>
     COL-SPECS D:F=0.90616730761 MOLE-RR=0.71744029824
     REPORT NOHYDRAULIC
     INTERNALS CS-1 STAGE1=2 STAGE2=26 P-UPDATE=NO  &
         TRAYTYPE=SIEVE NPASS=1 SYSFAC=1.000000000  &
         OVER-DESIGN=1.000000000 WEIR-HT=50.80000000 <mm>  &
         DC-CLEAR=38.10000000 <mm> DC-WTOP-SIDE=140.1223566 <mm>  &
         DC-WBOT-SIDE=140.1223566 <mm> HOLE-DIAM=12.70000000 <mm>  &
         HOLE-AREA=.1000000000 FLOOD-METH=GLITSCH6  &
         DECK-THICK=0.134 <IN> PCT-FLOOD-FA=80.00000000  &
         AER-PARAM-M=1.000000000 MAX-DC-LOAD=GLITSCH  &
         MAX-ACC-DP=.0250000000 MAX-PCT-DCB=100.0000000  &
         MAX-PCT-ENT=10.00000000 MIN-WEIR-LD=4.470981863  &
         MAX-WEIR-LD=117.3721131 MIN-PCT-DCA=.1000000000
     TRAY-SIZE 1 2 26 SIEVE
     INTERNALS CS-2 STAGE1=27 STAGE2=39 P-UPDATE=NO  &
         TRAYTYPE=SIEVE NPASS=1 SYSFAC=1.000000000  &
         OVER-DESIGN=1.000000000 WEIR-HT=50.80000000 <mm>  &
         DC-CLEAR=38.10000000 <mm> DC-WTOP-SIDE=135.4297496 <mm>  &
         DC-WBOT-SIDE=135.4297496 <mm> HOLE-DIAM=12.70000000 <mm>  &
         HOLE-AREA=.1000000000 FLOOD-METH=GLITSCH6  &
         DECK-THICK=0.134 <IN> PCT-FLOOD-FA=80.00000000  &
         AER-PARAM-M=1.000000000 MAX-DC-LOAD=GLITSCH  &
         MAX-ACC-DP=.0250000000 MAX-PCT-DCB=100.0000000  &
         MAX-PCT-ENT=10.00000000 MIN-WEIR-LD=4.470981863  &
         MAX-WEIR-LD=117.3721131 MIN-PCT-DCA=.1000000000
     TRAY-SIZE 2 27 39 SIEVE
     UTILITIES COND-UTIL=REFRIG1 REB-UTIL=LP

 PDF updated                                                                      TIME =     11.16
 THIS COPY OF ASPEN PLUS LICENSED TO JOHNS HOPKINS UNIVERSITY        
 
 


Calculations begin                                                              time     11.44


      UOS BLOCK RADFRAC1 MODEL: RADFRAC                                           TIME =     11.44

       Convergence iterations:
         OL   ML   IL     Err/Tol
          1    1    4      14.576    
          2    1    3     0.58767    

      UOS BLOCK RADFRAC2 MODEL: RADFRAC                                           TIME =     11.45

       Convergence iterations:
         OL   ML   IL     Err/Tol
          1    1    4      2.4074    
          2    1    2     0.59535E-01

      CHECKING PHASE EQUILIBRIUM RESULTS                                          TIME =     11.45

      CHECKING PHASE EQUILIBRIUM RESULTS                                          TIME =     11.45

 STREAM D2      
        SUBSTREAM MIXED     F =  3.193026399524014E-02  T =   278.651356456332      P =   213000.000000000    
                            H =   6292324.46414958      V =   0.00000000000000      L =   1.00000000000000    
                            ENTROPY =  -2093.65072116676      DENSITY =   936.073955916230      MW =   62.4985199997759    
        VINYL-01  3.193026399507882E-02  ACETY-01   0.00000000000000      DICHL-01  2.297223099681186E-16
        OXYGE-01   0.00000000000000      HYDRO-01   0.00000000000000      WATER     1.610897579941564E-13
        NITROGEN   0.00000000000000      CARBONMO   0.00000000000000      METHANE    0.00000000000000    

 STREAM B2      
        SUBSTREAM MIXED     F =  3.306345985156993E-03  T =   286.570427087096      P =   213000.000000000    
                            H =  -34799491.6970967      V =   0.00000000000000      L =   1.00000000000000    
                            ENTROPY =  -2269.99504276147      DENSITY =   1009.97199245807      MW =   71.6156874782198    
        VINYL-01  2.479577445503934E-03  ACETY-01   0.00000000000000      DICHL-01  8.267685396530588E-04
        OXYGE-01   0.00000000000000      HYDRO-01   0.00000000000000      WATER     1.426346695878264E-28
        NITROGEN   0.00000000000000      CARBONMO   0.00000000000000      METHANE    0.00000000000000    


*** INPUT SPECIFICATION MESSAGES ***

 FLOWSHEET    IS GENERATED BECAUSE OF OTHER CHANGES 04/17/2025   22:02:10:99 
 FLOWSHEET
     BLOCK RADFRAC1 IN=FEED OUT=D1 B1
     BLOCK RADFRAC2 IN=B1 OUT=D2 B2

 CHANGES WERE MADE TO BLOCK        RADFRAC1 04/17/2025   22:02:10:99 
 BLOCK RADFRAC1 RADFRAC
     SUBOBJECTS INTERNALS = CS-1 CS-2
     PARAM NSTAGE=32 ALGORITHM=STANDARD HYDRAULIC=NO MAXOL=25  &
         DAMPING=NONE
     PARAM2 STATIC-DP=YES OLD-SULZER=NO
     COL-CONFIG CONDENSER=TOTAL CA-CONFIG=INT-1
     FEEDS FEED 5
     PRODUCTS B1 32 L / D1 1 L
     P-SPEC 1 525. <kPa>
     COL-SPECS D:F=0.47034709424 MOLE-RR=1.3065843092
     REPORT NOHYDRAULIC
     INTERNALS CS-1 STAGE1=2 STAGE2=5 P-UPDATE=NO TRAYTYPE=SIEVE  &
         NPASS=1 SYSFAC=1.000000000 OVER-DESIGN=1.000000000  &
         WEIR-HT=50.80000000 <mm> DC-CLEAR=38.10000000 <mm>  &
         DC-WTOP-SIDE=138.0177584 <mm> DC-WBOT-SIDE=138.0177584 <mm>  &
         HOLE-DIAM=12.70000000 <mm> HOLE-AREA=.1000000000  &
         FLOOD-METH=GLITSCH6 DECK-THICK=0.134 <IN>  &
         PCT-FLOOD-FA=80.00000000 AER-PARAM-M=1.000000000  &
         MAX-DC-LOAD=GLITSCH MAX-ACC-DP=.0250000000  &
         MAX-PCT-DCB=100.0000000 MAX-PCT-ENT=10.00000000  &
         MIN-WEIR-LD=4.470981863 MAX-WEIR-LD=117.3721131  &
         MIN-PCT-DCA=.1000000000
     TRAY-SIZE 1 2 5 SIEVE
     INTERNALS CS-2 STAGE1=6 STAGE2=31 P-UPDATE=NO  &
         TRAYTYPE=SIEVE NPASS=1 SYSFAC=1.000000000  &
         OVER-DESIGN=1.000000000 WEIR-HT=50.80000000 <mm>  &
         DC-CLEAR=38.10000000 <mm> DC-WTOP-SIDE=135.1028217 <mm>  &
         DC-WBOT-SIDE=135.1028217 <mm> HOLE-DIAM=12.70000000 <mm>  &
         HOLE-AREA=.1000000000 FLOOD-METH=GLITSCH6  &
         DECK-THICK=0.134 <IN> PCT-FLOOD-FA=80.00000000  &
         AER-PARAM-M=1.000000000 MAX-DC-LOAD=GLITSCH  &
         MAX-ACC-DP=.0250000000 MAX-PCT-DCB=100.0000000  &
         MAX-PCT-ENT=10.00000000 MIN-WEIR-LD=4.470981863  &
         MAX-WEIR-LD=117.3721131 MIN-PCT-DCA=.1000000000
     TRAY-SIZE 2 6 31 SIEVE
     UTILITIES COND-UTIL=REFRIG4 REB-UTIL=LP

 CHANGES WERE MADE TO BLOCK        RADFRAC2 04/17/2025   22:02:10:99 
 BLOCK RADFRAC2 RADFRAC
     SUBOBJECTS INTERNALS = CS-1 CS-2
     PARAM NSTAGE=35 ALGORITHM=STANDARD HYDRAULIC=NO MAXOL=25  &
         DAMPING=NONE
     PARAM2 STATIC-DP=YES OLD-SULZER=NO
     COL-CONFIG CONDENSER=TOTAL CA-CONFIG=INT-1
     FEEDS B1 19
     PRODUCTS B2 35 L / D2 1 L
     P-SPEC 1 213. <kPa>
     COL-SPECS D:F=0.90624384379 MOLE-RR=0.74131614642
     REPORT NOHYDRAULIC
     INTERNALS CS-1 STAGE1=2 STAGE2=26 P-UPDATE=NO  &
         TRAYTYPE=SIEVE NPASS=1 SYSFAC=1.000000000  &
         OVER-DESIGN=1.000000000 WEIR-HT=50.80000000 <mm>  &
         DC-CLEAR=38.10000000 <mm> DC-WTOP-SIDE=130.3162548 <mm>  &
         DC-WBOT-SIDE=130.3162548 <mm> HOLE-DIAM=12.70000000 <mm>  &
         HOLE-AREA=.1000000000 FLOOD-METH=GLITSCH6  &
         DECK-THICK=0.134 <IN> PCT-FLOOD-FA=80.00000000  &
         AER-PARAM-M=1.000000000 MAX-DC-LOAD=GLITSCH  &
         MAX-ACC-DP=.0250000000 MAX-PCT-DCB=100.0000000  &
         MAX-PCT-ENT=10.00000000 MIN-WEIR-LD=4.470981863  &
         MAX-WEIR-LD=117.3721131 MIN-PCT-DCA=.1000000000
     TRAY-SIZE 1 2 26 SIEVE
     INTERNALS CS-2 STAGE1=27 STAGE2=34 P-UPDATE=NO  &
         TRAYTYPE=SIEVE NPASS=1 SYSFAC=1.000000000  &
         OVER-DESIGN=1.000000000 WEIR-HT=50.80000000 <mm>  &
         DC-CLEAR=38.10000000 <mm> DC-WTOP-SIDE=125.1322316 <mm>  &
         DC-WBOT-SIDE=125.1322316 <mm> HOLE-DIAM=12.70000000 <mm>  &
         HOLE-AREA=.1000000000 FLOOD-METH=GLITSCH6  &
         DECK-THICK=0.134 <IN> PCT-FLOOD-FA=80.00000000  &
         AER-PARAM-M=1.000000000 MAX-DC-LOAD=GLITSCH  &
         MAX-ACC-DP=.0250000000 MAX-PCT-DCB=100.0000000  &
         MAX-PCT-ENT=10.00000000 MIN-WEIR-LD=4.470981863  &
         MAX-WEIR-LD=117.3721131 MIN-PCT-DCA=.1000000000
     TRAY-SIZE 2 27 34 SIEVE
     UTILITIES COND-UTIL=REFRIG1 REB-UTIL=LP

 PDF updated                                                                      TIME =     13.23
 THIS COPY OF ASPEN PLUS LICENSED TO JOHNS HOPKINS UNIVERSITY        
 
 


Calculations begin                                                              time     13.60


      UOS BLOCK RADFRAC1 MODEL: RADFRAC                                           TIME =     13.60

       Convergence iterations:
         OL   ML   IL     Err/Tol
          1    1    3      1.0083    
          2    1    3     0.23220E-01

      UOS BLOCK RADFRAC2 MODEL: RADFRAC                                           TIME =     13.60

       Convergence iterations:
         OL   ML   IL     Err/Tol
          1    1    3     0.18023    

      CHECKING PHASE EQUILIBRIUM RESULTS                                          TIME =     13.60

      CHECKING PHASE EQUILIBRIUM RESULTS                                          TIME =     13.60

 STREAM D2      
        SUBSTREAM MIXED     F =  3.174819513025441E-02  T =   278.651356455522      P =   213000.000000000    
                            H =   6292324.46138915      V =   0.00000000000000      L =   1.00000000000000    
                            ENTROPY =  -2093.65072115099      DENSITY =   936.073955919050      MW =   62.4985199993262    
        VINYL-01  3.174819512977353E-02  ACETY-01   0.00000000000000      DICHL-01  6.173033755535596E-20
        OXYGE-01   0.00000000000000      HYDRO-01   0.00000000000000      WATER     4.808829652809234E-13
        NITROGEN   0.00000000000000      CARBONMO   0.00000000000000      METHANE    0.00000000000000    

 STREAM B2      
        SUBSTREAM MIXED     F =  3.284534027364304E-03  T =   286.631786116726      P =   213000.000000000    
                            H =  -35071297.6691168      V =   0.00000000000000      L =   1.00000000000000    
                            ENTROPY =  -2271.18910522844      DENSITY =   1010.41449848153      MW =   71.6762505188905    
        VINYL-01  2.457763894331102E-03  ACETY-01   0.00000000000000      DICHL-01  8.267701330332020E-04
        OXYGE-01   0.00000000000000      HYDRO-01   0.00000000000000      WATER     2.509183244384334E-23
        NITROGEN   0.00000000000000      CARBONMO   0.00000000000000      METHANE    0.00000000000000    


*** INPUT SPECIFICATION MESSAGES ***

 FLOWSHEET    IS GENERATED BECAUSE OF OTHER CHANGES 04/17/2025   22:02:12:99 
 FLOWSHEET
     BLOCK RADFRAC1 IN=FEED OUT=D1 B1
     BLOCK RADFRAC2 IN=B1 OUT=D2 B2

 CHANGES WERE MADE TO BLOCK        RADFRAC1 04/17/2025   22:02:12:99 
 BLOCK RADFRAC1 RADFRAC
     SUBOBJECTS INTERNALS = CS-1 CS-2
     PARAM NSTAGE=35 ALGORITHM=STANDARD HYDRAULIC=NO MAXOL=25  &
         DAMPING=NONE
     PARAM2 STATIC-DP=YES OLD-SULZER=NO
     COL-CONFIG CONDENSER=TOTAL CA-CONFIG=INT-1
     FEEDS FEED 25
     PRODUCTS B1 35 L / D1 1 L
     P-SPEC 1 525. <kPa>
     COL-SPECS D:F=0.46715948486 MOLE-RR=1.3420529554
     REPORT NOHYDRAULIC
     INTERNALS CS-1 STAGE1=2 STAGE2=5 P-UPDATE=NO TRAYTYPE=SIEVE  &
         NPASS=1 SYSFAC=1.000000000 OVER-DESIGN=1.000000000  &
         WEIR-HT=50.80000000 <mm> DC-CLEAR=38.10000000 <mm>  &
         DC-WTOP-SIDE=143.7404951 <mm> DC-WBOT-SIDE=143.7404951 <mm>  &
         HOLE-DIAM=12.70000000 <mm> HOLE-AREA=.1000000000  &
         FLOOD-METH=GLITSCH6 DECK-THICK=0.134 <IN>  &
         PCT-FLOOD-FA=80.00000000 AER-PARAM-M=1.000000000  &
         MAX-DC-LOAD=GLITSCH MAX-ACC-DP=.0250000000  &
         MAX-PCT-DCB=100.0000000 MAX-PCT-ENT=10.00000000  &
         MIN-WEIR-LD=4.470981863 MAX-WEIR-LD=117.3721131  &
         MIN-PCT-DCA=.1000000000
     TRAY-SIZE 1 2 5 SIEVE
     INTERNALS CS-2 STAGE1=6 STAGE2=34 P-UPDATE=NO  &
         TRAYTYPE=SIEVE NPASS=1 SYSFAC=1.000000000  &
         OVER-DESIGN=1.000000000 WEIR-HT=50.80000000 <mm>  &
         DC-CLEAR=38.10000000 <mm> DC-WTOP-SIDE=141.1530637 <mm>  &
         DC-WBOT-SIDE=141.1530637 <mm> HOLE-DIAM=12.70000000 <mm>  &
         HOLE-AREA=.1000000000 FLOOD-METH=GLITSCH6  &
         DECK-THICK=0.134 <IN> PCT-FLOOD-FA=80.00000000  &
         AER-PARAM-M=1.000000000 MAX-DC-LOAD=GLITSCH  &
         MAX-ACC-DP=.0250000000 MAX-PCT-DCB=100.0000000  &
         MAX-PCT-ENT=10.00000000 MIN-WEIR-LD=4.470981863  &
         MAX-WEIR-LD=117.3721131 MIN-PCT-DCA=.1000000000
     TRAY-SIZE 2 6 34 SIEVE
     UTILITIES COND-UTIL=REFRIG4 REB-UTIL=LP

 CHANGES WERE MADE TO BLOCK        RADFRAC2 04/17/2025   22:02:12:99 
 BLOCK RADFRAC2 RADFRAC
     SUBOBJECTS INTERNALS = CS-1 CS-2
     PARAM NSTAGE=39 ALGORITHM=STANDARD HYDRAULIC=NO MAXOL=25  &
         DAMPING=NONE
     PARAM2 STATIC-DP=YES OLD-SULZER=NO
     COL-CONFIG CONDENSER=TOTAL CA-CONFIG=INT-1
     FEEDS B1 17
     PRODUCTS B2 39 L / D2 1 L
     P-SPEC 1 213. <kPa>
     COL-SPECS D:F=0.8959052456 MOLE-RR=1.4663060147
     REPORT NOHYDRAULIC
     INTERNALS CS-1 STAGE1=2 STAGE2=26 P-UPDATE=NO  &
         TRAYTYPE=SIEVE NPASS=1 SYSFAC=1.000000000  &
         OVER-DESIGN=1.000000000 WEIR-HT=50.80000000 <mm>  &
         DC-CLEAR=38.10000000 <mm> DC-WTOP-SIDE=130.8824192 <mm>  &
         DC-WBOT-SIDE=130.8824192 <mm> HOLE-DIAM=12.70000000 <mm>  &
         HOLE-AREA=.1000000000 FLOOD-METH=GLITSCH6  &
         DECK-THICK=0.134 <IN> PCT-FLOOD-FA=80.00000000  &
         AER-PARAM-M=1.000000000 MAX-DC-LOAD=GLITSCH  &
         MAX-ACC-DP=.0250000000 MAX-PCT-DCB=100.0000000  &
         MAX-PCT-ENT=10.00000000 MIN-WEIR-LD=4.470981863  &
         MAX-WEIR-LD=117.3721131 MIN-PCT-DCA=.1000000000
     TRAY-SIZE 1 2 26 SIEVE
     INTERNALS CS-2 STAGE1=27 STAGE2=38 P-UPDATE=NO  &
         TRAYTYPE=SIEVE NPASS=1 SYSFAC=1.000000000  &
         OVER-DESIGN=1.000000000 WEIR-HT=50.80000000 <mm>  &
         DC-CLEAR=38.10000000 <mm> DC-WTOP-SIDE=125.7595823 <mm>  &
         DC-WBOT-SIDE=125.7595823 <mm> HOLE-DIAM=12.70000000 <mm>  &
         HOLE-AREA=.1000000000 FLOOD-METH=GLITSCH6  &
         DECK-THICK=0.134 <IN> PCT-FLOOD-FA=80.00000000  &
         AER-PARAM-M=1.000000000 MAX-DC-LOAD=GLITSCH  &
         MAX-ACC-DP=.0250000000 MAX-PCT-DCB=100.0000000  &
         MAX-PCT-ENT=10.00000000 MIN-WEIR-LD=4.470981863  &
         MAX-WEIR-LD=117.3721131 MIN-PCT-DCA=.1000000000
     TRAY-SIZE 2 27 38 SIEVE
     UTILITIES COND-UTIL=REFRIG1 REB-UTIL=LP

 PDF updated                                                                      TIME =     15.14
 THIS COPY OF ASPEN PLUS LICENSED TO JOHNS HOPKINS UNIVERSITY        
 
 


Calculations begin                                                              time     15.39


      UOS BLOCK RADFRAC1 MODEL: RADFRAC                                           TIME =     15.39

       Convergence iterations:
         OL   ML   IL     Err/Tol
          1    1   10      92924.    
          2    1    9      10669.    
          3    1    5      5200.8    
          4    1    4      2038.1    
          5    1    3      822.96    
          6    1    3      516.86    
          7    1    3      242.24    
          8    1    3      49.853    
          9    1    5      77.355    
         10    1    3      51.461    
         11    1    3      24.662    
         12    1    3      8.8074    
         13    1    4      4.1071    
         14    1    4      4.8887    
         15    1    3      3.8758    
         16    1    3      2.2279    
         17    1    4     0.74748    

      UOS BLOCK RADFRAC2 MODEL: RADFRAC                                           TIME =     15.41

       Convergence iterations:
         OL   ML   IL     Err/Tol
          1    1    3      2.5068    
          2    1    2     0.50381E-01

      CHECKING PHASE EQUILIBRIUM RESULTS                                          TIME =     15.41

      CHECKING PHASE EQUILIBRIUM RESULTS                                          TIME =     15.41

 STREAM D2      
        SUBSTREAM MIXED     F =  3.157489617717869E-02  T =   278.651264800460      P =   213000.000000000    
                            H =   6292011.66884343      V =   0.00000000000000      L =   1.00000000000000    
                            ENTROPY =  -2093.65055897860      DENSITY =   936.074275607104      MW =   62.4984691033772    
        VINYL-01  3.157486004995422E-02  ACETY-01  1.109780299679099E-14  DICHL-01  1.635114413309748E-20
        OXYGE-01   0.00000000000000      HYDRO-01  1.773077872278442E-14  WATER     3.612719564475369E-08
        NITROGEN   0.00000000000000      CARBONMO   0.00000000000000      METHANE    0.00000000000000    

 STREAM B2      
        SUBSTREAM MIXED     F =  3.668670407848428E-03  T =   285.667890539725      P =   213000.000000000    
                            H =  -30757764.6824792      V =   0.00000000000000      L =   1.00000000000000    
                            ENTROPY =  -2252.15677002733      DENSITY =   1003.32949467261      MW =   70.7154242434645    
        VINYL-01  2.841885320090170E-03  ACETY-01  8.884347399909986E-43  DICHL-01  8.267850877582572E-04
        OXYGE-01   0.00000000000000      HYDRO-01  4.951050860245749E-43  WATER     5.545080706915430E-22
        NITROGEN   0.00000000000000      CARBONMO   0.00000000000000      METHANE    0.00000000000000    


*** INPUT SPECIFICATION MESSAGES ***

 FLOWSHEET    IS GENERATED BECAUSE OF OTHER CHANGES 04/17/2025   22:02:14:99 
 FLOWSHEET
     BLOCK RADFRAC1 IN=FEED OUT=D1 B1
     BLOCK RADFRAC2 IN=B1 OUT=D2 B2

 CHANGES WERE MADE TO BLOCK        RADFRAC1 04/17/2025   22:02:14:99 
 BLOCK RADFRAC1 RADFRAC
     SUBOBJECTS INTERNALS = CS-1 CS-2
     PARAM NSTAGE=32 ALGORITHM=STANDARD HYDRAULIC=NO MAXOL=25  &
         DAMPING=NONE
     PARAM2 STATIC-DP=YES OLD-SULZER=NO
     COL-CONFIG CONDENSER=TOTAL CA-CONFIG=INT-1
     FEEDS FEED 25
     PRODUCTS B1 32 L / D1 1 L
     P-SPEC 1 525. <kPa>
     COL-SPECS D:F=0.47027373693 MOLE-RR=0.6950280655
     REPORT NOHYDRAULIC
     INTERNALS CS-1 STAGE1=2 STAGE2=5 P-UPDATE=NO TRAYTYPE=SIEVE  &
         NPASS=1 SYSFAC=1.000000000 OVER-DESIGN=1.000000000  &
         WEIR-HT=50.80000000 <mm> DC-CLEAR=38.10000000 <mm>  &
         DC-WTOP-SIDE=144.6769935 <mm> DC-WBOT-SIDE=144.6769935 <mm>  &
         HOLE-DIAM=12.70000000 <mm> HOLE-AREA=.1000000000  &
         FLOOD-METH=GLITSCH6 DECK-THICK=0.134 <IN>  &
         PCT-FLOOD-FA=80.00000000 AER-PARAM-M=1.000000000  &
         MAX-DC-LOAD=GLITSCH MAX-ACC-DP=.0250000000  &
         MAX-PCT-DCB=100.0000000 MAX-PCT-ENT=10.00000000  &
         MIN-WEIR-LD=4.470981863 MAX-WEIR-LD=117.3721131  &
         MIN-PCT-DCA=.1000000000
     TRAY-SIZE 1 2 5 SIEVE
     INTERNALS CS-2 STAGE1=6 STAGE2=31 P-UPDATE=NO  &
         TRAYTYPE=SIEVE NPASS=1 SYSFAC=1.000000000  &
         OVER-DESIGN=1.000000000 WEIR-HT=50.80000000 <mm>  &
         DC-CLEAR=38.10000000 <mm> DC-WTOP-SIDE=144.6852007 <mm>  &
         DC-WBOT-SIDE=144.6852007 <mm> HOLE-DIAM=12.70000000 <mm>  &
         HOLE-AREA=.1000000000 FLOOD-METH=GLITSCH6  &
         DECK-THICK=0.134 <IN> PCT-FLOOD-FA=80.00000000  &
         AER-PARAM-M=1.000000000 MAX-DC-LOAD=GLITSCH  &
         MAX-ACC-DP=.0250000000 MAX-PCT-DCB=100.0000000  &
         MAX-PCT-ENT=10.00000000 MIN-WEIR-LD=4.470981863  &
         MAX-WEIR-LD=117.3721131 MIN-PCT-DCA=.1000000000
     TRAY-SIZE 2 6 31 SIEVE
     UTILITIES COND-UTIL=REFRIG4 REB-UTIL=LP

 CHANGES WERE MADE TO BLOCK        RADFRAC2 04/17/2025   22:02:14:99 
 BLOCK RADFRAC2 RADFRAC
     SUBOBJECTS INTERNALS = CS-1 CS-2
     PARAM NSTAGE=35 ALGORITHM=STANDARD HYDRAULIC=NO MAXOL=25  &
         DAMPING=NONE
     PARAM2 STATIC-DP=YES OLD-SULZER=NO
     COL-CONFIG CONDENSER=TOTAL CA-CONFIG=INT-1
     FEEDS B1 19
     PRODUCTS B2 35 L / D2 1 L
     P-SPEC 1 213. <kPa>
     COL-SPECS D:F=0.89599943377 MOLE-RR=1.4857705103
     REPORT NOHYDRAULIC
     INTERNALS CS-1 STAGE1=2 STAGE2=26 P-UPDATE=NO  &
         TRAYTYPE=SIEVE NPASS=1 SYSFAC=1.000000000  &
         OVER-DESIGN=1.000000000 WEIR-HT=50.80000000 <mm>  &
         DC-CLEAR=38.10000000 <mm> DC-WTOP-SIDE=156.6527172 <mm>  &
         DC-WBOT-SIDE=156.6527172 <mm> HOLE-DIAM=12.70000000 <mm>  &
         HOLE-AREA=.1000000000 FLOOD-METH=GLITSCH6  &
         DECK-THICK=0.134 <IN> PCT-FLOOD-FA=80.00000000  &
         AER-PARAM-M=1.000000000 MAX-DC-LOAD=GLITSCH  &
         MAX-ACC-DP=.0250000000 MAX-PCT-DCB=100.0000000  &
         MAX-PCT-ENT=10.00000000 MIN-WEIR-LD=4.470981863  &
         MAX-WEIR-LD=117.3721131 MIN-PCT-DCA=.1000000000
     TRAY-SIZE 1 2 26 SIEVE
     INTERNALS CS-2 STAGE1=27 STAGE2=34 P-UPDATE=NO  &
         TRAYTYPE=SIEVE NPASS=1 SYSFAC=1.000000000  &
         OVER-DESIGN=1.000000000 WEIR-HT=50.80000000 <mm>  &
         DC-CLEAR=38.10000000 <mm> DC-WTOP-SIDE=152.7095001 <mm>  &
         DC-WBOT-SIDE=152.7095001 <mm> HOLE-DIAM=12.70000000 <mm>  &
         HOLE-AREA=.1000000000 FLOOD-METH=GLITSCH6  &
         DECK-THICK=0.134 <IN> PCT-FLOOD-FA=80.00000000  &
         AER-PARAM-M=1.000000000 MAX-DC-LOAD=GLITSCH  &
         MAX-ACC-DP=.0250000000 MAX-PCT-DCB=100.0000000  &
         MAX-PCT-ENT=10.00000000 MIN-WEIR-LD=4.470981863  &
         MAX-WEIR-LD=117.3721131 MIN-PCT-DCA=.1000000000
     TRAY-SIZE 2 27 34 SIEVE
     UTILITIES COND-UTIL=REFRIG1 REB-UTIL=LP

 PDF updated                                                                      TIME =     17.04
 THIS COPY OF ASPEN PLUS LICENSED TO JOHNS HOPKINS UNIVERSITY        
 
 


Calculations begin                                                              time     17.29


      UOS BLOCK RADFRAC1 MODEL: RADFRAC                                           TIME =     17.29

       Convergence iterations:
         OL   ML   IL     Err/Tol
          1    1    6      19.319    
          2    1    3     0.37585    

      UOS BLOCK RADFRAC2 MODEL: RADFRAC                                           TIME =     17.29

       Convergence iterations:
         OL   ML   IL     Err/Tol
          1    1    3     0.12558    

      CHECKING PHASE EQUILIBRIUM RESULTS                                          TIME =     17.30

      CHECKING PHASE EQUILIBRIUM RESULTS                                          TIME =     17.30

 STREAM D2      
        SUBSTREAM MIXED     F =  3.139365293012589E-02  T =   278.648087438807      P =   213000.000000000    
                            H =   6281139.08304730      V =   0.00000000000000      L =   1.00000000000000    
                            ENTROPY =  -2093.66435967536      DENSITY =   936.085373514529      MW =   62.4966998388118    
        VINYL-01  3.139236833467061E-02  ACETY-01  3.160302022036705E-11  DICHL-01  1.416227735595768E-22
        OXYGE-01   0.00000000000000      HYDRO-01  6.537039650449329E-11  WATER     1.284498481858901E-06
        NITROGEN   0.00000000000000      CARBONMO   0.00000000000000      METHANE    0.00000000000000    

 STREAM B2      
        SUBSTREAM MIXED     F =  3.643928285784255E-03  T =   285.722412576561      P =   213000.000000000    
                            H =  -31008424.7414923      V =   0.00000000000000      L =   1.00000000000000    
                            ENTROPY =  -2253.27192473311      DENSITY =   1003.74616305884      MW =   70.7712166546642    
        VINYL-01  2.817143200836578E-03  ACETY-01  1.678215087540914E-32  DICHL-01  8.267850849476414E-04
        OXYGE-01   0.00000000000000      HYDRO-01  1.583639935808882E-32  WATER     3.561272833291053E-17
        NITROGEN   0.00000000000000      CARBONMO   0.00000000000000      METHANE    0.00000000000000    


*** INPUT SPECIFICATION MESSAGES ***

 FLOWSHEET    IS GENERATED BECAUSE OF OTHER CHANGES 04/17/2025   22:02:16:99 
 FLOWSHEET
     BLOCK RADFRAC1 IN=FEED OUT=D1 B1
     BLOCK RADFRAC2 IN=B1 OUT=D2 B2

 CHANGES WERE MADE TO BLOCK        RADFRAC1 04/17/2025   22:02:16:99 
 BLOCK RADFRAC1 RADFRAC
     SUBOBJECTS INTERNALS = CS-1 CS-2
     PARAM NSTAGE=33 ALGORITHM=STANDARD HYDRAULIC=NO MAXOL=25  &
         DAMPING=NONE
     PARAM2 STATIC-DP=YES OLD-SULZER=NO
     COL-CONFIG CONDENSER=TOTAL CA-CONFIG=INT-1
     FEEDS FEED 22
     PRODUCTS B1 33 L / D1 1 L
     P-SPEC 1 525. <kPa>
     COL-SPECS D:F=0.47153748609 MOLE-RR=0.69481648576
     REPORT NOHYDRAULIC
     INTERNALS CS-1 STAGE1=2 STAGE2=5 P-UPDATE=NO TRAYTYPE=SIEVE  &
         NPASS=1 SYSFAC=1.000000000 OVER-DESIGN=1.000000000  &
         WEIR-HT=50.80000000 <mm> DC-CLEAR=38.10000000 <mm>  &
         DC-WTOP-SIDE=115.9144247 <mm> DC-WBOT-SIDE=115.9144247 <mm>  &
         HOLE-DIAM=12.70000000 <mm> HOLE-AREA=.1000000000  &
         FLOOD-METH=GLITSCH6 DECK-THICK=0.134 <IN>  &
         PCT-FLOOD-FA=80.00000000 AER-PARAM-M=1.000000000  &
         MAX-DC-LOAD=GLITSCH MAX-ACC-DP=.0250000000  &
         MAX-PCT-DCB=100.0000000 MAX-PCT-ENT=10.00000000  &
         MIN-WEIR-LD=4.470981863 MAX-WEIR-LD=117.3721131  &
         MIN-PCT-DCA=.1000000000
     TRAY-SIZE 1 2 5 SIEVE
     INTERNALS CS-2 STAGE1=6 STAGE2=32 P-UPDATE=NO  &
         TRAYTYPE=SIEVE NPASS=1 SYSFAC=1.000000000  &
         OVER-DESIGN=1.000000000 WEIR-HT=50.80000000 <mm>  &
         DC-CLEAR=38.10000000 <mm> DC-WTOP-SIDE=119.3989619 <mm>  &
         DC-WBOT-SIDE=119.3989619 <mm> HOLE-DIAM=12.70000000 <mm>  &
         HOLE-AREA=.1000000000 FLOOD-METH=GLITSCH6  &
         DECK-THICK=0.134 <IN> PCT-FLOOD-FA=80.00000000  &
         AER-PARAM-M=1.000000000 MAX-DC-LOAD=GLITSCH  &
         MAX-ACC-DP=.0250000000 MAX-PCT-DCB=100.0000000  &
         MAX-PCT-ENT=10.00000000 MIN-WEIR-LD=4.470981863  &
         MAX-WEIR-LD=117.3721131 MIN-PCT-DCA=.1000000000
     TRAY-SIZE 2 6 32 SIEVE
     UTILITIES COND-UTIL=REFRIG4 REB-UTIL=LP

 CHANGES WERE MADE TO BLOCK        RADFRAC2 04/17/2025   22:02:16:99 
 BLOCK RADFRAC2 RADFRAC
     SUBOBJECTS INTERNALS = CS-1 CS-2
     PARAM NSTAGE=41 ALGORITHM=STANDARD HYDRAULIC=NO MAXOL=25  &
         DAMPING=NONE
     PARAM2 STATIC-DP=YES OLD-SULZER=NO
     COL-CONFIG CONDENSER=TOTAL CA-CONFIG=INT-1
     FEEDS B1 29
     PRODUCTS B2 41 L / D2 1 L
     P-SPEC 1 213. <kPa>
     COL-SPECS D:F=0.89839975954 MOLE-RR=0.91423030973
     REPORT NOHYDRAULIC
     INTERNALS CS-1 STAGE1=2 STAGE2=26 P-UPDATE=NO  &
         TRAYTYPE=SIEVE NPASS=1 SYSFAC=1.000000000  &
         OVER-DESIGN=1.000000000 WEIR-HT=50.80000000 <mm>  &
         DC-CLEAR=38.10000000 <mm> DC-WTOP-SIDE=156.8380715 <mm>  &
         DC-WBOT-SIDE=156.8380715 <mm> HOLE-DIAM=12.70000000 <mm>  &
         HOLE-AREA=.1000000000 FLOOD-METH=GLITSCH6  &
         DECK-THICK=0.134 <IN> PCT-FLOOD-FA=80.00000000  &
         AER-PARAM-M=1.000000000 MAX-DC-LOAD=GLITSCH  &
         MAX-ACC-DP=.0250000000 MAX-PCT-DCB=100.0000000  &
         MAX-PCT-ENT=10.00000000 MIN-WEIR-LD=4.470981863  &
         MAX-WEIR-LD=117.3721131 MIN-PCT-DCA=.1000000000
     TRAY-SIZE 1 2 26 SIEVE
     INTERNALS CS-2 STAGE1=27 STAGE2=40 P-UPDATE=NO  &
         TRAYTYPE=SIEVE NPASS=1 SYSFAC=1.000000000  &
         OVER-DESIGN=1.000000000 WEIR-HT=50.80000000 <mm>  &
         DC-CLEAR=38.10000000 <mm> DC-WTOP-SIDE=152.9242584 <mm>  &
         DC-WBOT-SIDE=152.9242584 <mm> HOLE-DIAM=12.70000000 <mm>  &
[...]
                            ENTROPY =  -2270.36199281507      DENSITY =   1010.10784787753      MW =   71.6341894451168    
        VINYL-01  2.472834474233640E-03  ACETY-01   0.00000000000000      DICHL-01  8.267528890365304E-04
        OXYGE-01   0.00000000000000      HYDRO-01   0.00000000000000      WATER     3.666001839746703E-21
        NITROGEN   0.00000000000000      CARBONMO   0.00000000000000      METHANE    0.00000000000000    


*** INPUT SPECIFICATION MESSAGES ***

 FLOWSHEET    IS GENERATED BECAUSE OF OTHER CHANGES 04/17/2025   22:02:42:99 
 FLOWSHEET
     BLOCK RADFRAC1 IN=FEED OUT=D1 B1
     BLOCK RADFRAC2 IN=B1 OUT=D2 B2

 CHANGES WERE MADE TO BLOCK        RADFRAC1 04/17/2025   22:02:42:99 
 BLOCK RADFRAC1 RADFRAC
     SUBOBJECTS INTERNALS = CS-1 CS-2
     PARAM NSTAGE=32 ALGORITHM=STANDARD HYDRAULIC=NO MAXOL=25  &
         DAMPING=NONE
     PARAM2 STATIC-DP=YES OLD-SULZER=NO
     COL-CONFIG CONDENSER=TOTAL CA-CONFIG=INT-1
     FEEDS FEED 5
     PRODUCTS B1 32 L / D1 1 L
     P-SPEC 1 525. <kPa>
     COL-SPECS D:F=0.47037891246 MOLE-RR=0.6950280655
     REPORT NOHYDRAULIC
     INTERNALS CS-1 STAGE1=2 STAGE2=5 P-UPDATE=NO TRAYTYPE=SIEVE  &
         NPASS=1 SYSFAC=1.000000000 OVER-DESIGN=1.000000000  &
         WEIR-HT=50.80000000 <mm> DC-CLEAR=38.10000000 <mm>  &
         DC-WTOP-SIDE=118.2926207 <mm> DC-WBOT-SIDE=118.2926207 <mm>  &
         HOLE-DIAM=12.70000000 <mm> HOLE-AREA=.1000000000  &
         FLOOD-METH=GLITSCH6 DECK-THICK=0.134 <IN>  &
         PCT-FLOOD-FA=80.00000000 AER-PARAM-M=1.000000000  &
         MAX-DC-LOAD=GLITSCH MAX-ACC-DP=.0250000000  &
         MAX-PCT-DCB=100.0000000 MAX-PCT-ENT=10.00000000  &
         MIN-WEIR-LD=4.470981863 MAX-WEIR-LD=117.3721131  &
         MIN-PCT-DCA=.1000000000
     TRAY-SIZE 1 2 5 SIEVE
     INTERNALS CS-2 STAGE1=6 STAGE2=31 P-UPDATE=NO  &
         TRAYTYPE=SIEVE NPASS=1 SYSFAC=1.000000000  &
         OVER-DESIGN=1.000000000 WEIR-HT=50.80000000 <mm>  &
         DC-CLEAR=38.10000000 <mm> DC-WTOP-SIDE=120.8718002 <mm>  &
         DC-WBOT-SIDE=120.8718002 <mm> HOLE-DIAM=12.70000000 <mm>  &
         HOLE-AREA=.1000000000 FLOOD-METH=GLITSCH6  &
         DECK-THICK=0.134 <IN> PCT-FLOOD-FA=80.00000000  &
         AER-PARAM-M=1.000000000 MAX-DC-LOAD=GLITSCH  &
         MAX-ACC-DP=.0250000000 MAX-PCT-DCB=100.0000000  &
         MAX-PCT-ENT=10.00000000 MIN-WEIR-LD=4.470981863  &
         MAX-WEIR-LD=117.3721131 MIN-PCT-DCA=.1000000000
     TRAY-SIZE 2 6 31 SIEVE
     UTILITIES COND-UTIL=REFRIG4 REB-UTIL=LP

 CHANGES WERE MADE TO BLOCK        RADFRAC2 04/17/2025   22:02:42:99 
 BLOCK RADFRAC2 RADFRAC
     SUBOBJECTS INTERNALS = CS-1 CS-2
     PARAM NSTAGE=40 ALGORITHM=STANDARD HYDRAULIC=NO MAXOL=25  &
         DAMPING=NONE
     PARAM2 STATIC-DP=YES OLD-SULZER=NO
     COL-CONFIG CONDENSER=TOTAL CA-CONFIG=INT-1
     FEEDS B1 19
     PRODUCTS B2 40 L / D2 1 L
     P-SPEC 1 213. <kPa>
     COL-SPECS D:F=0.90667994231 MOLE-RR=0.77760524977
     REPORT NOHYDRAULIC
     INTERNALS CS-1 STAGE1=2 STAGE2=26 P-UPDATE=NO  &
         TRAYTYPE=SIEVE NPASS=1 SYSFAC=1.000000000  &
         OVER-DESIGN=1.000000000 WEIR-HT=50.80000000 <mm>  &
         DC-CLEAR=38.10000000 <mm> DC-WTOP-SIDE=132.8521960 <mm>  &
         DC-WBOT-SIDE=132.8521960 <mm> HOLE-DIAM=12.70000000 <mm>  &
         HOLE-AREA=.1000000000 FLOOD-METH=GLITSCH6  &
         DECK-THICK=0.134 <IN> PCT-FLOOD-FA=80.00000000  &
         AER-PARAM-M=1.000000000 MAX-DC-LOAD=GLITSCH  &
         MAX-ACC-DP=.0250000000 MAX-PCT-DCB=100.0000000  &
         MAX-PCT-ENT=10.00000000 MIN-WEIR-LD=4.470981863  &
         MAX-WEIR-LD=117.3721131 MIN-PCT-DCA=.1000000000
     TRAY-SIZE 1 2 26 SIEVE
     INTERNALS CS-2 STAGE1=27 STAGE2=39 P-UPDATE=NO  &
         TRAYTYPE=SIEVE NPASS=1 SYSFAC=1.000000000  &
         OVER-DESIGN=1.000000000 WEIR-HT=50.80000000 <mm>  &
         DC-CLEAR=38.10000000 <mm> DC-WTOP-SIDE=127.8025536 <mm>  &
         DC-WBOT-SIDE=127.8025536 <mm> HOLE-DIAM=12.70000000 <mm>  &
         HOLE-AREA=.1000000000 FLOOD-METH=GLITSCH6  &
         DECK-THICK=0.134 <IN> PCT-FLOOD-FA=80.00000000  &
         AER-PARAM-M=1.000000000 MAX-DC-LOAD=GLITSCH  &
         MAX-ACC-DP=.0250000000 MAX-PCT-DCB=100.0000000  &
         MAX-PCT-ENT=10.00000000 MIN-WEIR-LD=4.470981863  &
         MAX-WEIR-LD=117.3721131 MIN-PCT-DCA=.1000000000
     TRAY-SIZE 2 27 39 SIEVE
     UTILITIES COND-UTIL=REFRIG1 REB-UTIL=LP

 PDF updated                                                                      TIME =     45.15
 THIS COPY OF ASPEN PLUS LICENSED TO JOHNS HOPKINS UNIVERSITY        
 
 


Calculations begin                                                              time     45.40


      UOS BLOCK RADFRAC1 MODEL: RADFRAC                                           TIME =     45.40

       Convergence iterations:
         OL   ML   IL     Err/Tol
          1    1    3     0.72217    

      UOS BLOCK RADFRAC2 MODEL: RADFRAC                                           TIME =     45.41

       Convergence iterations:
         OL   ML   IL     Err/Tol
          1    1    3     0.22923    

      CHECKING PHASE EQUILIBRIUM RESULTS                                          TIME =     45.41

      CHECKING PHASE EQUILIBRIUM RESULTS                                          TIME =     45.41

 STREAM D2      
        SUBSTREAM MIXED     F =  3.176156470163877E-02  T =   278.651356310036      P =   213000.000000000    
                            H =   6292323.96492715      V =   0.00000000000000      L =   1.00000000000000    
                            ENTROPY =  -2093.65071934805      DENSITY =   936.073956426476      MW =   62.4985199185447    
        VINYL-01  3.176156464347870E-02  ACETY-01   0.00000000000000      DICHL-01  3.828500509449317E-20
        OXYGE-01   0.00000000000000      HYDRO-01   0.00000000000000      WATER     5.816007326455724E-11
        NITROGEN   0.00000000000000      CARBONMO   0.00000000000000      METHANE    0.00000000000000    

 STREAM B2      
        SUBSTREAM MIXED     F =  3.269059909641381E-03  T =   286.675797473465      P =   213000.000000000    
                            H =  -35265360.5905022      V =   0.00000000000000      L =   1.00000000000000    
                            ENTROPY =  -2272.04044305092      DENSITY =   1010.72990182841      MW =   71.7194965851978    
        VINYL-01  2.442307420315577E-03  ACETY-01   0.00000000000000      DICHL-01  8.267524893258042E-04
        OXYGE-01   0.00000000000000      HYDRO-01   0.00000000000000      WATER     6.137991441638762E-24
        NITROGEN   0.00000000000000      CARBONMO   0.00000000000000      METHANE    0.00000000000000    


*** INPUT SPECIFICATION MESSAGES ***

 FLOWSHEET    IS GENERATED BECAUSE OF OTHER CHANGES 04/17/2025   22:02:44:99 
 FLOWSHEET
     BLOCK RADFRAC1 IN=FEED OUT=D1 B1
     BLOCK RADFRAC2 IN=B1 OUT=D2 B2

 CHANGES WERE MADE TO BLOCK        RADFRAC1 04/17/2025   22:02:44:99 
 BLOCK RADFRAC1 RADFRAC
     SUBOBJECTS INTERNALS = CS-1 CS-2
     PARAM NSTAGE=31 ALGORITHM=STANDARD HYDRAULIC=NO MAXOL=25  &
         DAMPING=NONE
     PARAM2 STATIC-DP=YES OLD-SULZER=NO
     COL-CONFIG CONDENSER=TOTAL CA-CONFIG=INT-1
     FEEDS FEED 9
     PRODUCTS B1 31 L / D1 1 L
     P-SPEC 1 525. <kPa>
     COL-SPECS D:F=0.46565542769 MOLE-RR=0.25158567334
     REPORT NOHYDRAULIC
     INTERNALS CS-1 STAGE1=2 STAGE2=5 P-UPDATE=NO TRAYTYPE=SIEVE  &
         NPASS=1 SYSFAC=1.000000000 OVER-DESIGN=1.000000000  &
         WEIR-HT=50.80000000 <mm> DC-CLEAR=38.10000000 <mm>  &
         DC-WTOP-SIDE=118.4548153 <mm> DC-WBOT-SIDE=118.4548153 <mm>  &
         HOLE-DIAM=12.70000000 <mm> HOLE-AREA=.1000000000  &
         FLOOD-METH=GLITSCH6 DECK-THICK=0.134 <IN>  &
         PCT-FLOOD-FA=80.00000000 AER-PARAM-M=1.000000000  &
         MAX-DC-LOAD=GLITSCH MAX-ACC-DP=.0250000000  &
         MAX-PCT-DCB=100.0000000 MAX-PCT-ENT=10.00000000  &
         MIN-WEIR-LD=4.470981863 MAX-WEIR-LD=117.3721131  &
         MIN-PCT-DCA=.1000000000
     TRAY-SIZE 1 2 5 SIEVE
     INTERNALS CS-2 STAGE1=6 STAGE2=30 P-UPDATE=NO  &
         TRAYTYPE=SIEVE NPASS=1 SYSFAC=1.000000000  &
         OVER-DESIGN=1.000000000 WEIR-HT=50.80000000 <mm>  &
         DC-CLEAR=38.10000000 <mm> DC-WTOP-SIDE=120.9920181 <mm>  &
         DC-WBOT-SIDE=120.9920181 <mm> HOLE-DIAM=12.70000000 <mm>  &
         HOLE-AREA=.1000000000 FLOOD-METH=GLITSCH6  &
         DECK-THICK=0.134 <IN> PCT-FLOOD-FA=80.00000000  &
         AER-PARAM-M=1.000000000 MAX-DC-LOAD=GLITSCH  &
         MAX-ACC-DP=.0250000000 MAX-PCT-DCB=100.0000000  &
         MAX-PCT-ENT=10.00000000 MIN-WEIR-LD=4.470981863  &
         MAX-WEIR-LD=117.3721131 MIN-PCT-DCA=.1000000000
     TRAY-SIZE 2 6 30 SIEVE
     UTILITIES COND-UTIL=REFRIG4 REB-UTIL=LP

 CHANGES WERE MADE TO BLOCK        RADFRAC2 04/17/2025   22:02:44:99 
 BLOCK RADFRAC2 RADFRAC
     SUBOBJECTS INTERNALS = CS-1 CS-2
     PARAM NSTAGE=40 ALGORITHM=STANDARD HYDRAULIC=NO MAXOL=25  &
         DAMPING=NONE
     PARAM2 STATIC-DP=YES OLD-SULZER=NO
     COL-CONFIG CONDENSER=TOTAL CA-CONFIG=INT-1
     FEEDS B1 13
     PRODUCTS B2 40 L / D2 1 L
     P-SPEC 1 213. <kPa>
     COL-SPECS D:F=0.89639242547 MOLE-RR=0.98847188584
     REPORT NOHYDRAULIC
     INTERNALS CS-1 STAGE1=2 STAGE2=26 P-UPDATE=NO  &
         TRAYTYPE=SIEVE NPASS=1 SYSFAC=1.000000000  &
         OVER-DESIGN=1.000000000 WEIR-HT=50.80000000 <mm>  &
         DC-CLEAR=38.10000000 <mm> DC-WTOP-SIDE=132.3321713 <mm>  &
         DC-WBOT-SIDE=132.3321713 <mm> HOLE-DIAM=12.70000000 <mm>  &
         HOLE-AREA=.1000000000 FLOOD-METH=GLITSCH6  &
         DECK-THICK=0.134 <IN> PCT-FLOOD-FA=80.00000000  &
         AER-PARAM-M=1.000000000 MAX-DC-LOAD=GLITSCH  &
         MAX-ACC-DP=.0250000000 MAX-PCT-DCB=100.0000000  &
         MAX-PCT-ENT=10.00000000 MIN-WEIR-LD=4.470981863  &
         MAX-WEIR-LD=117.3721131 MIN-PCT-DCA=.1000000000
     TRAY-SIZE 1 2 26 SIEVE
     INTERNALS CS-2 STAGE1=27 STAGE2=39 P-UPDATE=NO  &
         TRAYTYPE=SIEVE NPASS=1 SYSFAC=1.000000000  &
         OVER-DESIGN=1.000000000 WEIR-HT=50.80000000 <mm>  &
         DC-CLEAR=38.10000000 <mm> DC-WTOP-SIDE=127.2890773 <mm>  &
         DC-WBOT-SIDE=127.2890773 <mm> HOLE-DIAM=12.70000000 <mm>  &
         HOLE-AREA=.1000000000 FLOOD-METH=GLITSCH6  &
         DECK-THICK=0.134 <IN> PCT-FLOOD-FA=80.00000000  &
         AER-PARAM-M=1.000000000 MAX-DC-LOAD=GLITSCH  &
         MAX-ACC-DP=.0250000000 MAX-PCT-DCB=100.0000000  &
         MAX-PCT-ENT=10.00000000 MIN-WEIR-LD=4.470981863  &
         MAX-WEIR-LD=117.3721131 MIN-PCT-DCA=.1000000000
     TRAY-SIZE 2 27 39 SIEVE
     UTILITIES COND-UTIL=REFRIG1 REB-UTIL=LP

 PDF updated                                                                      TIME =     47.13
 THIS COPY OF ASPEN PLUS LICENSED TO JOHNS HOPKINS UNIVERSITY        
 
 


Calculations begin                                                              time     47.41


      UOS BLOCK RADFRAC1 MODEL: RADFRAC                                           TIME =     47.41

       Convergence iterations:
         OL   ML   IL     Err/Tol
          1    1   10      17014.    
          2    1    7      3978.6    
          3    1    6      5791.3    
          4    1    4      4734.8    
          5    1    5      32299.    
          6    1    5      7721.1    
          7    1    4      1059.3    
          8    1    3      126.76    
          9    1    4      69.271    
         10    1    4      38.026    
         11    1    4      12.991    
         12    1    4      4.8201    
         13    1    4     0.91537    

      UOS BLOCK RADFRAC2 MODEL: RADFRAC                                           TIME =     47.42

       Convergence iterations:
         OL   ML   IL     Err/Tol
          1    1    4      2.6115    
          2    1    2     0.58675E-01

      CHECKING PHASE EQUILIBRIUM RESULTS                                          TIME =     47.42

      CHECKING PHASE EQUILIBRIUM RESULTS                                          TIME =     47.42

 STREAM D2      
        SUBSTREAM MIXED     F =  3.168124154745869E-02  T =   278.649579822327      P =   213000.000000000    
                            H =   6286251.84051008      V =   0.00000000000000      L =   1.00000000000000    
                            ENTROPY =  -2093.65632902355      DENSITY =   936.080157822309      MW =   62.4975318749155    
        VINYL-01  3.168053779859489E-02  ACETY-01   0.00000000000000      DICHL-01  1.548249101486135E-15
        OXYGE-01   0.00000000000000      HYDRO-01   0.00000000000000      WATER     7.037488622501646E-07
        NITROGEN   0.00000000000000      CARBONMO   0.00000000000000      METHANE    0.00000000000000    

 STREAM B2      
        SUBSTREAM MIXED     F =  3.661807598508190E-03  T =   285.683067939343      P =   213000.000000000    
                            H =  -30826924.0500063      V =   0.00000000000000      L =   1.00000000000000    
                            ENTROPY =  -2252.46379866212      DENSITY =   1003.44430340401      MW =   70.7308213231844    
        VINYL-01  2.835022782376452E-03  ACETY-01   0.00000000000000      DICHL-01  8.267848161317385E-04
        OXYGE-01   0.00000000000000      HYDRO-01   0.00000000000000      WATER     4.155310399385977E-23
        NITROGEN   0.00000000000000      CARBONMO   0.00000000000000      METHANE    0.00000000000000    


*** INPUT SPECIFICATION MESSAGES ***

 FLOWSHEET    IS GENERATED BECAUSE OF OTHER CHANGES 04/17/2025   22:02:46:99 
 FLOWSHEET
     BLOCK RADFRAC1 IN=FEED OUT=D1 B1
     BLOCK RADFRAC2 IN=B1 OUT=D2 B2

 CHANGES WERE MADE TO BLOCK        RADFRAC1 04/17/2025   22:02:46:99 
 BLOCK RADFRAC1 RADFRAC
     SUBOBJECTS INTERNALS = CS-1 CS-2
     PARAM NSTAGE=32 ALGORITHM=STANDARD HYDRAULIC=NO MAXOL=25  &
         DAMPING=NONE
     PARAM2 STATIC-DP=YES OLD-SULZER=NO
     COL-CONFIG CONDENSER=TOTAL CA-CONFIG=INT-1
     FEEDS FEED 3
     PRODUCTS B1 32 L / D1 1 L
     P-SPEC 1 525. <kPa>
     COL-SPECS D:F=0.47044224495 MOLE-RR=0.6950280655
     REPORT NOHYDRAULIC
     INTERNALS CS-1 STAGE1=2 STAGE2=5 P-UPDATE=NO TRAYTYPE=SIEVE  &
         NPASS=1 SYSFAC=1.000000000 OVER-DESIGN=1.000000000  &
         WEIR-HT=50.80000000 <mm> DC-CLEAR=38.10000000 <mm>  &
         DC-WTOP-SIDE=91.13876359 <mm> DC-WBOT-SIDE=91.13876359 <mm>  &
         HOLE-DIAM=12.70000000 <mm> HOLE-AREA=.1000000000  &
         FLOOD-METH=GLITSCH6 DECK-THICK=0.134 <IN>  &
         PCT-FLOOD-FA=80.00000000 AER-PARAM-M=1.000000000  &
         MAX-DC-LOAD=GLITSCH MAX-ACC-DP=.0250000000  &
         MAX-PCT-DCB=100.0000000 MAX-PCT-ENT=10.00000000  &
         MIN-WEIR-LD=4.470981863 MAX-WEIR-LD=117.3721131  &
         MIN-PCT-DCA=.1000000000
     TRAY-SIZE 1 2 5 SIEVE
     INTERNALS CS-2 STAGE1=6 STAGE2=31 P-UPDATE=NO  &
         TRAYTYPE=SIEVE NPASS=1 SYSFAC=1.000000000  &
         OVER-DESIGN=1.000000000 WEIR-HT=50.80000000 <mm>  &
         DC-CLEAR=38.10000000 <mm> DC-WTOP-SIDE=105.6404800 <mm>  &
         DC-WBOT-SIDE=105.6404800 <mm> HOLE-DIAM=12.70000000 <mm>  &
         HOLE-AREA=.1000000000 FLOOD-METH=GLITSCH6  &
         DECK-THICK=0.134 <IN> PCT-FLOOD-FA=80.00000000  &
         AER-PARAM-M=1.000000000 MAX-DC-LOAD=GLITSCH  &
         MAX-ACC-DP=.0250000000 MAX-PCT-DCB=100.0000000  &
         MAX-PCT-ENT=10.00000000 MIN-WEIR-LD=4.470981863  &
         MAX-WEIR-LD=117.3721131 MIN-PCT-DCA=.1000000000
     TRAY-SIZE 2 6 31 SIEVE
     UTILITIES COND-UTIL=REFRIG4 REB-UTIL=LP

 CHANGES WERE MADE TO BLOCK        RADFRAC2 04/17/2025   22:02:46:99 
 BLOCK RADFRAC2 RADFRAC
     SUBOBJECTS INTERNALS = CS-1 CS-2
     PARAM NSTAGE=40 ALGORITHM=STANDARD HYDRAULIC=NO MAXOL=25  &
         DAMPING=NONE
     PARAM2 STATIC-DP=YES OLD-SULZER=NO
     COL-CONFIG CONDENSER=TOTAL CA-CONFIG=INT-1
     FEEDS B1 19
     PRODUCTS B2 40 L / D2 1 L
     P-SPEC 1 213. <kPa>
     COL-SPECS D:F=0.89795756943 MOLE-RR=0.74131614642
     REPORT NOHYDRAULIC
     INTERNALS CS-1 STAGE1=2 STAGE2=26 P-UPDATE=NO  &
         TRAYTYPE=SIEVE NPASS=1 SYSFAC=1.000000000  &
         OVER-DESIGN=1.000000000 WEIR-HT=50.80000000 <mm>  &
         DC-CLEAR=38.10000000 <mm> DC-WTOP-SIDE=140.1570954 <mm>  &
         DC-WBOT-SIDE=140.1570954 <mm> HOLE-DIAM=12.70000000 <mm>  &
         HOLE-AREA=.1000000000 FLOOD-METH=GLITSCH6  &
         DECK-THICK=0.134 <IN> PCT-FLOOD-FA=80.00000000  &
         AER-PARAM-M=1.000000000 MAX-DC-LOAD=GLITSCH  &
         MAX-ACC-DP=.0250000000 MAX-PCT-DCB=100.0000000  &
         MAX-PCT-ENT=10.00000000 MIN-WEIR-LD=4.470981863  &
         MAX-WEIR-LD=117.3721131 MIN-PCT-DCA=.1000000000
     TRAY-SIZE 1 2 26 SIEVE
     INTERNALS CS-2 STAGE1=27 STAGE2=39 P-UPDATE=NO  &
         TRAYTYPE=SIEVE NPASS=1 SYSFAC=1.000000000  &
         OVER-DESIGN=1.000000000 WEIR-HT=50.80000000 <mm>  &
         DC-CLEAR=38.10000000 <mm> DC-WTOP-SIDE=135.4810294 <mm>  &
         DC-WBOT-SIDE=135.4810294 <mm> HOLE-DIAM=12.70000000 <mm>  &
         HOLE-AREA=.1000000000 FLOOD-METH=GLITSCH6  &
         DECK-THICK=0.134 <IN> PCT-FLOOD-FA=80.00000000  &
         AER-PARAM-M=1.000000000 MAX-DC-LOAD=GLITSCH  &
         MAX-ACC-DP=.0250000000 MAX-PCT-DCB=100.0000000  &
         MAX-PCT-ENT=10.00000000 MIN-WEIR-LD=4.470981863  &
         MAX-WEIR-LD=117.3721131 MIN-PCT-DCA=.1000000000
     TRAY-SIZE 2 27 39 SIEVE
     UTILITIES COND-UTIL=REFRIG1 REB-UTIL=LP

 PDF updated                                                                      TIME =     49.17
 THIS COPY OF ASPEN PLUS LICENSED TO JOHNS HOPKINS UNIVERSITY        
 
 


Calculations begin                                                              time     49.42


      UOS BLOCK RADFRAC1 MODEL: RADFRAC                                           TIME =     49.42

       Convergence iterations:
         OL   ML   IL     Err/Tol
          1    1    3      8.1335    
          2    1    2     0.59111    

      UOS BLOCK RADFRAC2 MODEL: RADFRAC                                           TIME =     49.42

       Convergence iterations:
         OL   ML   IL     Err/Tol
          1    1    3     0.75140    

      CHECKING PHASE EQUILIBRIUM RESULTS                                          TIME =     49.43

      CHECKING PHASE EQUILIBRIUM RESULTS                                          TIME =     49.43

 STREAM D2      
        SUBSTREAM MIXED     F =  3.145225299756392E-02  T =   278.651356359979      P =   213000.000000000    
                            H =   6292324.14365371      V =   0.00000000000000      L =   1.00000000000000    
                            ENTROPY =  -2093.65071994867      DENSITY =   936.073956247718      MW =   62.4985199476741    
        VINYL-01  3.145225296056646E-02  ACETY-01   0.00000000000000      DICHL-01  6.119322694383587E-20
        OXYGE-01   0.00000000000000      HYDRO-01   0.00000000000000      WATER     3.699745936250312E-11
        NITROGEN   0.00000000000000      CARBONMO   0.00000000000000      METHANE    0.00000000000000    

 STREAM B2      
        SUBSTREAM MIXED     F =  3.574182625144806E-03  T =   285.860199648187      P =   213000.000000000    
                            H =  -31638420.6919562      V =   0.00000000000000      L =   1.00000000000000    
                            ENTROPY =  -2256.07006237100      DENSITY =   1004.79076616545      MW =   70.9114633774260    
        VINYL-01  2.749474226007462E-03  ACETY-01   0.00000000000000      DICHL-01  8.247083991373436E-04
        OXYGE-01   0.00000000000000      HYDRO-01   0.00000000000000      WATER     5.158750868725788E-24
        NITROGEN   0.00000000000000      CARBONMO   0.00000000000000      METHANE    0.00000000000000    
