
 + + + + + + + + + + + + + + + + + + + + + + + + + + + + + + + + + + + + + + + +
 + + + + + + + + + + + + + + + + + + + + + + + + + + + + + + + + + + + + + + + +
 + +                                                                         + +
 + +                      ASPEN PLUS CALCULATION HISTORY                     + +
 + +                                                                         + +
 + + + + + + + + + + + + + + + + + + + + + + + + + + + + + + + + + + + + + + + +
 + + + + + + + + + + + + + + + + + + + + + + + + + + + + + + + + + + + + + + + +

 ASPEN PLUS IS A TRADEMARK OF           HOTLINE:
 ASPEN TECHNOLOGY, INC.                 U.S.A. 888/996-7100
 781/221-6400                           EUROPE (44) 1189-226555

 PLATFORM: WIN-X64                                       APRIL 17, 2025      
 VERSION: 40.0   Build 359                               THURSDAY    
 INSTALLATION:                                           9:45:38 P.M.        

 THIS COPY OF ASPEN PLUS LICENSED TO JOHNS HOPKINS UNIVERSITY        


      ASPEN PLUS (R) IS A PROPRIETARY PRODUCT OF ASPEN TECHNOLOGY, INC.
      (ASPENTECH), AND MAY BE USED ONLY UNDER AGREEMENT WITH ASPENTECH.
      RESTRICTED RIGHTS LEGEND:  USE, REPRODUCTION, OR DISCLOSURE BY THE
      U.S. GOVERNMENT IS SUBJECT TO RESTRICTIONS SET FORTH IN 
      (i) FAR 52.227-14, Alt. III, (ii) FAR 52.227-19, (iii) DFARS 
      252.227-7013(c)(1)(ii), or (iv) THE ACCOMPANYING LICENSE AGREEMENT,
      AS APPLICABLE. FOR PURPOSES OF THE FAR, THIS SOFTWARE SHALL BE DEEMED
      TO BE "UNPUBLISHED" AND LICENSED WITH DISCLOSURE PROHIBITIONS.
      CONTRACTOR/SUBCONTRACTOR: ASPEN TECHNOLOGY, INC. 20 CROSBY DRIVE,
      BEDFORD, MA 01730.
 *** INPUT SUMMARY ***

 >>CURRENT RUN

   ORIGINAL RUN                           APRIL 17, 2025      
   9:45:38 P.M.                           THURSDAY    
   INPUT FILE: _4534mpe.inm
   RUN ID : _4534mpe
          1    ;
          2    ;Input file created by Aspen Plus Rel. 40.0 at 21:45:37 Thu Apr 17, 2025
          3    ;Directory C:\Users\wsangpa1\OneDrive - Johns Hopkins\ASPEN\Aspen\Vinyl_Distillation  Runid VINYL CHLORIDE DISTILLATION
          4    ;
          5
          6
          7    DYNAMICS
          8        DYNAMICS RESULTS=ON
          9
         10    IN-UNITS MET PRESSURE=bar TEMPERATURE=C DELTA-T=C PDROP=bar  &
         11            INVERSE-PRES='1/bar' SHORT-LENGTH=mm
         12
         13    DEF-STREAMS CONVEN ALL
         14
         15    MODEL-OPTION
         16
         17    DATABANKS 'APV140 PURE40' / 'APV140 AQUEOUS' / 'APV140 SOLIDS' &
         18             / 'APV140 INORGANIC' / 'APESV140 AP-EOS' /  &
         19            'NISTV140 NIST-TRC' / 'APESV140 ACIDGAS' /  &
         20            'APESV140 BIOFEED' / 'APESV140 FERMENT' /  &
         21            'APESV140 FLARE' / 'APV140 ASPENPCD' / 'APV140 BIODIESEL' &
         22             / 'APV140 COMBUST' / 'APV140 ELECPURE' /  &
         23            'APV140 EOS-LIT' / 'APV140 ETHYLENE' / 'APV140 HYSYS' /  &
         24            'APV140 INITIATO' / 'APV140 NRTL-SAC' / 'APV140 PC-SAFT' &
         25             / 'APV140 POLYMER' / 'APV140 POLYPCSF' /  &
         26            'APV140 PURE25' / 'APV140 PURE26' / 'APV140 PURE27' /  &
         27            'APV140 PURE28' / 'APV140 PURE32' / 'APV140 PURE35' /  &
         28            'APV140 PURE36' / 'APV140 PURE37' / 'APV140 PURE38' /  &
         29            'APV140 PURE39' / 'APV140 SEGMENT' / 'FACTV140 FACTPCD'
         30
         31    PROP-SOURCES 'APV140 PURE40' / 'APV140 AQUEOUS' /  &
         32            'APV140 SOLIDS' / 'APV140 INORGANIC' / 'APESV140 AP-EOS' &
         33             / 'NISTV140 NIST-TRC' / 'APESV140 ACIDGAS' /  &
         34            'APESV140 BIOFEED' / 'APESV140 FERMENT' /  &
         35            'APESV140 FLARE' / 'APV140 ASPENPCD' / 'APV140 BIODIESEL' &
         36             / 'APV140 COMBUST' / 'APV140 ELECPURE' /  &
         37            'APV140 EOS-LIT' / 'APV140 ETHYLENE' / 'APV140 HYSYS' /  &
         38            'APV140 INITIATO' / 'APV140 NRTL-SAC' / 'APV140 PC-SAFT' &
         39             / 'APV140 POLYMER' / 'APV140 POLYPCSF' /  &
         40            'APV140 PURE25' / 'APV140 PURE26' / 'APV140 PURE27' /  &
         41            'APV140 PURE28' / 'APV140 PURE32' / 'APV140 PURE35' /  &
         42            'APV140 PURE36' / 'APV140 PURE37' / 'APV140 PURE38' /  &
         43            'APV140 PURE39' / 'APV140 SEGMENT' / 'FACTV140 FACTPCD'
         44
         45    COMPONENTS
         46        VINYL-01 C2H3CL /
         47        ACETY-01 C2H2 /
         48        DICHL-01 C2H4CL2-1 /
         49        OXYGE-01 O2 /
         50        HYDRO-01 HCL /
         51        WATER H2O /
         52        NITROGEN N2 /
         53        CARBONMO CO /
         54        METHANE CH4
         55
         56    SOLVE
         57        RUN-MODE MODE=SIM
         58
         59    FLOWSHEET
         60        BLOCK RADFRAC1 IN=FEED OUT=D1 B1
         61        BLOCK RADFRAC2 IN=B1 OUT=D2 B2
         62
         63    PROPERTIES NRTL
         64
         65    PROP-DATA PCES-1
         66        IN-UNITS MET PRESSURE=bar TEMPERATURE=C DELTA-T=C PDROP=bar  &
         67            INVERSE-PRES='1/bar' SHORT-LENGTH=mm
         68        PROP-LIST DHVLB / VB / RKTZRA / VLSTD
         69        PVAL DICHL-01 6750.889295 / 88.65938200 / .2692624250 /  &
         70            83.75050270
         71
         72    PROP-DATA DHVLWT-1
         73        IN-UNITS MET PRESSURE=bar TEMPERATURE=C DELTA-T=C PDROP=bar  &
         74            INVERSE-PRES='1/bar' SHORT-LENGTH=mm
         75        PROP-LIST DHVLWT
         76        PVAL DICHL-01 6750.889295 57.20700000 .3800000000 0.0  &
         77            -141.0072000
         78
         79    PROP-DATA KLDIP-1
         80        IN-UNITS MET PRESSURE=bar TEMPERATURE=C DELTA-T=C PDROP=bar  &
         81            INVERSE-PRES='1/bar' SHORT-LENGTH=mm
         82        PROP-LIST KLDIP
         83        PVAL DICHL-01 .1017396118 6.34424108E-5 -4.1249461E-6  &
         84            2.17593050E-8 -4.501867E-11 57.20700000 243.5904000
         85
         86    PROP-DATA MULAND-1
         87        IN-UNITS MET PRESSURE=bar TEMPERATURE=C DELTA-T=C PDROP=bar  &
         88            INVERSE-PRES='1/bar' SHORT-LENGTH=mm
         89        PROP-LIST MULAND
         90        PVAL DICHL-01 80.92147478 -3642.542350 -12.26059350  &
         91            57.20700000 243.5904000
         92
         93    PROP-DATA SIGDIP-1
         94        IN-UNITS MET PRESSURE=bar TEMPERATURE=C DELTA-T=C PDROP=bar  &
         95            INVERSE-PRES='1/bar' SHORT-LENGTH=mm
         96        PROP-LIST SIGDIP
         97        PVAL DICHL-01 68.72045330 1.222222220 -1.348626E-10  &
         98            1.4957495E-10 -6.024811E-11 57.20700000 238.3708000
         99
        100    PROP-DATA NRTL-1
        101        IN-UNITS MET PRESSURE=bar TEMPERATURE=C DELTA-T=C PDROP=bar  &
        102            INVERSE-PRES='1/bar' SHORT-LENGTH=mm
        103        PROP-LIST NRTL
        104        BPVAL VINYL-01 HYDRO-01 .3421000000 -119.7519000 .3000000000  &
        105            0.0 0.0 0.0 -80.70000000 -80.70000000
        106        BPVAL HYDRO-01 VINYL-01 .1251000000 13.81580000 .3000000000  &
        107            0.0 0.0 0.0 -80.70000000 -80.70000000
        108        BPVAL VINYL-01 WATER -7.166300000 3581.032000 .3000000000  &
        109            0.0 0.0 0.0 15.00000000 92.00000000
        110        BPVAL WATER VINYL-01 4.137300000 253.3814000 .3000000000  &
        111            0.0 0.0 0.0 15.00000000 92.00000000
        112        BPVAL DICHL-01 WATER 161.6302000 -4790.826200 .2000000000  &
        113            0.0 -24.93690000 0.0 0.0 50.00000000
        114        BPVAL WATER DICHL-01 128.7456000 -6025.360400 .2000000000  &
        115            0.0 -18.11790000 0.0 0.0 50.00000000
        116
        117    STREAM FEED
        118        SUBSTREAM MIXED TEMP=15.0227 PRES=540. <kPa>  &
        119            MOLE-FLOW=238.1141
        120        MOLE-FRAC VINYL-01 0.82 / ACETY-01 0.0163 / DICHL-01  &
        121            0.0125 / OXYGE-01 0.0058 / HYDRO-01 0.0682 / WATER  &
        122            0.0026 / NITROGEN 0.0552 / CARBONMO 0.006 / METHANE  &
        123            0.0134
        124
        125    BLOCK RADFRAC1 RADFRAC
        126        SUBOBJECTS INTERNALS = CS-1 CS-2
        127        PARAM NSTAGE=31 ALGORITHM=STANDARD HYDRAULIC=NO MAXOL=25  &
        128            DAMPING=NONE
        129        PARAM2 STATIC-DP=YES OLD-SULZER=NO
        130        COL-CONFIG CONDENSER=TOTAL CA-CONFIG=INT-1
        131        FEEDS FEED 23
        132        PRODUCTS B1 31 L / D1 1 L
        133        P-SPEC 1 525. <kPa>
        134        COL-SPECS D:F=0.46229889604 MOLE-RR=1.4454514377
        135        REPORT NOHYDRAULIC
        136        INTERNALS CS-1 STAGE1=2 STAGE2=5 P-UPDATE=NO TRAYTYPE=SIEVE  &
        137            NPASS=1 SYSFAC=1.000000000 OVER-DESIGN=1.000000000  &
        138            WEIR-HT=50.80000000 <mm> DC-CLEAR=38.10000000 <mm>  &
        139            DC-WTOP-SIDE=141.1844920 <mm> DC-WBOT-SIDE=141.1844920 <mm>  &
        140            HOLE-DIAM=12.70000000 <mm> HOLE-AREA=.1000000000  &
        141            FLOOD-METH=GLITSCH6 DECK-THICK=0.134 <IN>  &
        142            PCT-FLOOD-FA=80.00000000 AER-PARAM-M=1.000000000  &
        143            MAX-DC-LOAD=GLITSCH MAX-ACC-DP=.0250000000  &
        144            MAX-PCT-DCB=100.0000000 MAX-PCT-ENT=10.00000000  &
        145            MIN-WEIR-LD=4.470981863 MAX-WEIR-LD=117.3721131  &
        146            MIN-PCT-DCA=.1000000000
        147        TRAY-SIZE 1 2 5 SIEVE
        148        INTERNALS CS-2 STAGE1=6 STAGE2=30 P-UPDATE=NO  &
        149            TRAYTYPE=SIEVE NPASS=1 SYSFAC=1.000000000  &
        150            OVER-DESIGN=1.000000000 WEIR-HT=50.80000000 <mm>  &
        151            DC-CLEAR=38.10000000 <mm> DC-WTOP-SIDE=138.4000000 <mm>  &
        152            DC-WBOT-SIDE=138.4000000 <mm> HOLE-DIAM=12.70000000 <mm>  &
        153            HOLE-AREA=.1000000000 FLOOD-METH=GLITSCH6  &
        154            DECK-THICK=0.134 <IN> PCT-FLOOD-FA=80.00000000  &
        155            AER-PARAM-M=1.000000000 MAX-DC-LOAD=GLITSCH  &
        156            MAX-ACC-DP=.0250000000 MAX-PCT-DCB=100.0000000  &
        157            MAX-PCT-ENT=10.00000000 MIN-WEIR-LD=4.470981863  &
        158            MAX-WEIR-LD=117.3721131 MIN-PCT-DCA=.1000000000
        159        TRAY-SIZE 2 6 30 SIEVE
        160        UTILITIES COND-UTIL=REFRIG4 REB-UTIL=LP
        161
        162    BLOCK RADFRAC2 RADFRAC
        163        SUBOBJECTS INTERNALS = CS-1 CS-2
        164        PARAM NSTAGE=37 ALGORITHM=STANDARD HYDRAULIC=NO MAXOL=25  &
        165            DAMPING=NONE
        166        PARAM2 STATIC-DP=YES OLD-SULZER=NO
        167        COL-CONFIG CONDENSER=TOTAL CA-CONFIG=INT-1
        168        FEEDS B1 27
        169        PRODUCTS B2 37 L / D2 1 L
        170        P-SPEC 1 213. <kPa>
        171        COL-SPECS D:F=0.90168663203 MOLE-RR=0.49109520442
        172        REPORT NOHYDRAULIC
        173        INTERNALS CS-1 STAGE1=2 STAGE2=26 P-UPDATE=NO  &
        174            TRAYTYPE=SIEVE NPASS=1 SYSFAC=1.000000000  &
        175            OVER-DESIGN=1.000000000 WEIR-HT=50.80000000 <mm>  &
        176            DC-CLEAR=38.10000000 <mm> DC-WTOP-SIDE=131.3579200 <mm>  &
        177            DC-WBOT-SIDE=131.3579200 <mm> HOLE-DIAM=12.70000000 <mm>  &
        178            HOLE-AREA=.1000000000 FLOOD-METH=GLITSCH6  &
        179            DECK-THICK=0.134 <IN> PCT-FLOOD-FA=80.00000000  &
        180            AER-PARAM-M=1.000000000 MAX-DC-LOAD=GLITSCH  &
        181            MAX-ACC-DP=.0250000000 MAX-PCT-DCB=100.0000000  &
        182            MAX-PCT-ENT=10.00000000 MIN-WEIR-LD=4.470981863  &
        183            MAX-WEIR-LD=117.3721131 MIN-PCT-DCA=.1000000000
        184        TRAY-SIZE 1 2 26 SIEVE
        185        INTERNALS CS-2 STAGE1=27 STAGE2=36 P-UPDATE=NO  &
        186            TRAYTYPE=SIEVE NPASS=1 SYSFAC=1.000000000  &
        187            OVER-DESIGN=1.000000000 WEIR-HT=50.80000000 <mm>  &
        188            DC-CLEAR=38.10000000 <mm> DC-WTOP-SIDE=126.2597047 <mm>  &
        189            DC-WBOT-SIDE=126.2597047 <mm> HOLE-DIAM=12.70000000 <mm>  &
        190            HOLE-AREA=.1000000000 FLOOD-METH=GLITSCH6  &
        191            DECK-THICK=0.134 <IN> PCT-FLOOD-FA=80.00000000  &
        192            AER-PARAM-M=1.000000000 MAX-DC-LOAD=GLITSCH  &
        193            MAX-ACC-DP=.0250000000 MAX-PCT-DCB=100.0000000  &
        194            MAX-PCT-ENT=10.00000000 MIN-WEIR-LD=4.470981863  &
        195            MAX-WEIR-LD=117.3721131 MIN-PCT-DCA=.1000000000
        196        TRAY-SIZE 2 27 36 SIEVE
        197        UTILITIES COND-UTIL=REFRIG1 REB-UTIL=LP
        198
        199    UTILITY HP GENERAL
        200        DESCRIPTION  &
        201            'High Pressure Steam, Inlet Temp=250 C, Outlet Temp=249 C, Pres=572 psia'
        202        COST ENERGY-PRICE=2.5E-06 <$/kJ>
        203        PARAM UTILITY-TYPE=STEAM TIN=250. TOUT=249. VFRAC=1.  &
        204            VFR-OUT=0. CALOPT=FLASH MIN-TAPP=10. CALCCO2=YES  &
        205            FACTORSOURCE="US-Title40-Part98" FUELSOURCE="Natural_gas"  &
        206            CO2FACTOR=2.10554172E-7 EFFICIENCY=0.85  &
        207            HTC=0.0216 <GJ/hr-sqm-C>
        208
        209    UTILITY LP GENERAL
        210        DESCRIPTION  &
        211            'Low Pressure Steam, Inlet Temp=125 C, Outlet Temp=124 C'
        212        COST ENERGY-PRICE=1.9E-06 <$/kJ>
        213        PARAM UTILITY-TYPE=STEAM TIN=125. TOUT=124. VFRAC=1.  &
        214            VFR-OUT=0. CALOPT=FLASH MIN-TAPP=10. CALCCO2=YES  &
        215            FACTORSOURCE="US-Title40-Part98" FUELSOURCE="Natural_gas"  &
        216            CO2FACTOR=2.10554172E-7 EFFICIENCY=0.85  &
        217            HTC=0.0216 <GJ/hr-sqm-C>
        218
        219    UTILITY MP GENERAL
        220        DESCRIPTION  &
        221            'Medium Pressure Steam, Inlet Temp=175 C, Outlet Temp=174 C, Pres=127 psia'
        222        COST ENERGY-PRICE=2.2E-06 <$/kJ>
        223        PARAM UTILITY-TYPE=STEAM TIN=175. TOUT=174. VFRAC=1.  &
        224            VFR-OUT=0. CALOPT=FLASH MIN-TAPP=10. CALCCO2=YES  &
        225            FACTORSOURCE="US-Title40-Part98" FUELSOURCE="Natural_gas"  &
        226            CO2FACTOR=2.10554172E-7 EFFICIENCY=0.85  &
        227            HTC=0.0216 <GJ/hr-sqm-C>
        228
        229    UTILITY REFRIG1 GENERAL
        230        DESCRIPTION  &
        231            'Refrigerant 1, Inlet Temp=-25 C, Outlet Temp=-24 C'
        232        COST ENERGY-PRICE=2.74E-06 <$/kJ>
        233        PARAM UTILITY-TYPE=REFRIGERATIO COOLING-VALU=-4. <kJ/kg>  &
        234            TIN=-25. TOUT=-24. MIN-TAPP=3. CALCCO2=YES FACTORSOURCE= &
        235            "US-Title40-Part98" FUELSOURCE="Natural_gas"  &
        236            CO2FACTOR=2.10554172E-7 EFFICIENCY=1.  &
        237            HTC=0.00468 <GJ/hr-sqm-C>
        238
        239    UTILITY REFRIG4 GENERAL
        240        DESCRIPTION  &
        241            'Very Low Temperature, Inlet Temp=-270 C, Outlet Temp=-269 C'
        242        COST ENERGY-PRICE=8.9E-06 <$/kJ>
        243        PARAM UTILITY-TYPE=REFRIGERATIO COOLING-VALU=-1.341 <kJ/kg>  &
        244            TIN=-270. TOUT=-269. MIN-TAPP=2. CALCCO2=YES  &
        245            FACTORSOURCE="US-Title40-Part98" FUELSOURCE="Natural_gas"  &
        246            CO2FACTOR=2.10554172E-7 EFFICIENCY=1.  &
        247            HTC=0.00468 <GJ/hr-sqm-C>
        248
        249    UTILITY WATER GENERAL
        250        DESCRIPTION 'Cooling Water, Inlet Temp=20 C, Outlet Temp=25 C'
        251        COST ENERGY-PRICE=2.12E-07 <$/kJ>
        252        PARAM UTILITY-TYPE=WATER PRES=1. <atm> PRES-OUT=1. <atm>  &
        253            TIN=20. TOUT=25. CALOPT=FLASH MIN-TAPP=5.  &
        254            HTC=0.0135 <GJ/hr-sqm-C>
        255
        256    EO-CONV-OPTI
        257
        258    STREAM-REPOR MOLEFLOW
        259
        260    PROPERTY-REP PCES NOPROP-DATA NODFMS
        261    ;
        262    ;
        263    ;
        264    ;
        265    ;
 *** INPUT TRANSLATOR MESSAGES ***

  *** THIS RUN USES THE PROPERTIES ENTERPRISE DATABASE ***
      SQLLOCALDB.APESV140 : (DATAVERSION - 40.0.0.13)                         
      SQLLOCALDB.APV140 : (DATAVERSION - 40.0.0.13)                           
      SQLLOCALDB.FACTV140 : (DATAVERSION - 40.0.0.12)                         
      SQLLOCALDB.NISTV140 : (DATAVERSION - 40.0.0.12)                         
 
 

 PDF updated                                                                      TIME =      2.16

 *** CALCULATION TRACE ***


 *** FLOWSHEET ANALYSIS MESSAGES ***

 FLOWSHEET CONNECTIVITY BY STREAMS       

   STREAM     SOURCE     DEST           STREAM     SOURCE     DEST
   FEED       ----       RADFRAC1       D1         RADFRAC1   ----    
   B1         RADFRAC1   RADFRAC2       D2         RADFRAC2   ----    
   B2         RADFRAC2   ----                                         

 FLOWSHEET CONNECTIVITY BY BLOCKS        

   BLOCK        INLETS                         OUTLETS
   RADFRAC1     FEED                           D1 B1                       
   RADFRAC2     B1                             D2 B2                       

      COMPUTATION ORDER FOR THE FLOWSHEET IS:
      REFRIG1 LP REFRIG4 RADFRAC1 RADFRAC2 HP MP WATER 

Calculations begin                                                              time      1.31


 SIMULATION CALCULATIONS BEGIN                                                    TIME =      1.31

      UTILITY BLOCK REFRIG1  MODEL: GENERAL                                       TIME =      1.31
      HEATING/COOLING VALUE    -4.000000D+03 J/KG

      UTILITY BLOCK LP       MODEL: GENERAL                                       TIME =      1.31
      KODE = 5  NTRIAL =   2  T = 398.1500  P =  232179.      V =  1.00000      Q =  0.00000    
      KODE = 5  NTRIAL =   2  T = 397.1500  P =  225121.      V =  0.00000      Q =  0.00000    
      HEATING/COOLING VALUE     2.191879D+06 J/KG

      UTILITY BLOCK REFRIG4  MODEL: GENERAL                                       TIME =      1.31
      HEATING/COOLING VALUE    -1.341000D+03 J/KG

      ENTHALPY CALCULATION FOR INLET STREAM FEED OF BLOCK RADFRAC1                TIME =      1.31
      KODE = 2  NTRIAL =   4  T = 288.1727  P =  540000.      V = 0.293865      Q =  0.00000    

      UOS BLOCK RADFRAC1 MODEL: RADFRAC                                           TIME =      1.31

       Convergence iterations:
         OL   ML   IL     Err/Tol
          1    1   10      54222.    
          2    1   10      38352.    
          3    1   10     0.10003E+06
          4    1    8      7441.9    
          5    1    5      3719.5    
          6    1   10     0.63140E+12
          7    1   10      2509.5    
          8    1    5      263.26    
          9    1    4      71.263    
         10    1    3      54.503    
         11    1    4      30.442    
         12    1    3      4.6178    
         13    1    3      3.0611    
         14    1    3      1.1988    
         15    1    3      1.1374    
         16    1    3     0.74508    

      UOS BLOCK RADFRAC2 MODEL: RADFRAC                                           TIME =      1.33

       Convergence iterations:
         OL   ML   IL     Err/Tol
          1    1    2     0.91971    
          2    1    3     0.29012E-01

      UTILITY BLOCK HP       MODEL: GENERAL                                       TIME =      1.33
      KODE = 5  NTRIAL =   5  T = 523.1500  P = 3.975372E+06  V =  1.00000      Q =  0.00000    
      KODE = 5  NTRIAL =   5  T = 522.1500  P = 3.908667E+06  V =  0.00000      Q =  0.00000    
      HEATING/COOLING VALUE     1.719324D+06 J/KG

      UTILITY BLOCK MP       MODEL: GENERAL                                       TIME =      1.33
      KODE = 5  NTRIAL =   3  T = 448.1500  P =  892540.      V =  1.00000      Q =  0.00000    
      KODE = 5  NTRIAL =   3  T = 447.1500  P =  871696.      V =  0.00000      Q =  0.00000    
      HEATING/COOLING VALUE     2.034752D+06 J/KG

      UTILITY BLOCK WATER    MODEL: GENERAL                                       TIME =      1.33
      KODE = 2  NTRIAL =   1  T = 293.1500  P =  101325.      V =  0.00000      Q =  0.00000    
      KODE = 3  NTRIAL =   4  T = 373.1407  P =  101325.      V =  0.00000      Q = 6.026911E+06
      KODE = 2  NTRIAL =   1  T = 298.1500  P =  101325.      V =  0.00000      Q =  0.00000    
      KODE = 3  NTRIAL =   4  T = 373.1407  P =  101325.      V =  0.00000      Q = 5.650828E+06
      HEATING/COOLING VALUE    -2.087576D+04 J/KG

      CHECKING PHASE EQUILIBRIUM RESULTS                                          TIME =      1.33

      CHECKING PHASE EQUILIBRIUM RESULTS                                          TIME =      1.33


*** INPUT SPECIFICATION MESSAGES ***

 FLOWSHEET    IS GENERATED BECAUSE OF OTHER CHANGES 04/17/2025   21:45:43:99 
 FLOWSHEET
     BLOCK RADFRAC1 IN=FEED OUT=D1 B1
     BLOCK RADFRAC2 IN=B1 OUT=D2 B2

 CHANGES WERE MADE TO BLOCK        RADFRAC1 04/17/2025   21:45:43:99 
 BLOCK RADFRAC1 RADFRAC
     SUBOBJECTS INTERNALS = CS-1 CS-2
     PARAM NSTAGE=33 ALGORITHM=STANDARD HYDRAULIC=NO MAXOL=25  &
         DAMPING=NONE
     PARAM2 STATIC-DP=YES OLD-SULZER=NO
     COL-CONFIG CONDENSER=TOTAL CA-CONFIG=INT-1
     FEEDS FEED 9
     PRODUCTS B1 33 L / D1 1 L
     P-SPEC 1 525. <kPa>
     COL-SPECS D:F=0.47253607635 MOLE-RR=1.4935795178
     REPORT NOHYDRAULIC
     INTERNALS CS-1 STAGE1=2 STAGE2=5 P-UPDATE=NO TRAYTYPE=SIEVE  &
         NPASS=1 SYSFAC=1.000000000 OVER-DESIGN=1.000000000  &
         WEIR-HT=50.80000000 <mm> DC-CLEAR=38.10000000 <mm>  &
         DC-WTOP-SIDE=147.9195685 <mm> DC-WBOT-SIDE=147.9195685 <mm>  &
         HOLE-DIAM=12.70000000 <mm> HOLE-AREA=.1000000000  &
         FLOOD-METH=GLITSCH6 DECK-THICK=0.134 <IN>  &
         PCT-FLOOD-FA=80.00000000 AER-PARAM-M=1.000000000  &
         MAX-DC-LOAD=GLITSCH MAX-ACC-DP=.0250000000  &
         MAX-PCT-DCB=100.0000000 MAX-PCT-ENT=10.00000000  &
         MIN-WEIR-LD=4.470981863 MAX-WEIR-LD=117.3721131  &
         MIN-PCT-DCA=.1000000000
     TRAY-SIZE 1 2 5 SIEVE
     INTERNALS CS-2 STAGE1=6 STAGE2=32 P-UPDATE=NO  &
         TRAYTYPE=SIEVE NPASS=1 SYSFAC=1.000000000  &
         OVER-DESIGN=1.000000000 WEIR-HT=50.80000000 <mm>  &
         DC-CLEAR=38.10000000 <mm> DC-WTOP-SIDE=147.9291193 <mm>  &
         DC-WBOT-SIDE=147.9291193 <mm> HOLE-DIAM=12.70000000 <mm>  &
         HOLE-AREA=.1000000000 FLOOD-METH=GLITSCH6  &
         DECK-THICK=0.134 <IN> PCT-FLOOD-FA=80.00000000  &
         AER-PARAM-M=1.000000000 MAX-DC-LOAD=GLITSCH  &
         MAX-ACC-DP=.0250000000 MAX-PCT-DCB=100.0000000  &
         MAX-PCT-ENT=10.00000000 MIN-WEIR-LD=4.470981863  &
         MAX-WEIR-LD=117.3721131 MIN-PCT-DCA=.1000000000
     TRAY-SIZE 2 6 32 SIEVE
     UTILITIES COND-UTIL=REFRIG4 REB-UTIL=LP

 CHANGES WERE MADE TO BLOCK        RADFRAC2 04/17/2025   21:45:43:99 
 BLOCK RADFRAC2 RADFRAC
     SUBOBJECTS INTERNALS = CS-1 CS-2
     PARAM NSTAGE=38 ALGORITHM=STANDARD HYDRAULIC=NO MAXOL=25  &
         DAMPING=NONE
     PARAM2 STATIC-DP=YES OLD-SULZER=NO
     COL-CONFIG CONDENSER=TOTAL CA-CONFIG=INT-1
     FEEDS B1 5
     PRODUCTS B2 38 L / D2 1 L
     P-SPEC 1 213. <kPa>
     COL-SPECS D:F=0.90718632088 MOLE-RR=1.0769822114
     REPORT NOHYDRAULIC
     INTERNALS CS-1 STAGE1=2 STAGE2=26 P-UPDATE=NO  &
         TRAYTYPE=SIEVE NPASS=1 SYSFAC=1.000000000  &
         OVER-DESIGN=1.000000000 WEIR-HT=50.80000000 <mm>  &
         DC-CLEAR=38.10000000 <mm> DC-WTOP-SIDE=121.2866914 <mm>  &
         DC-WBOT-SIDE=121.2866914 <mm> HOLE-DIAM=12.70000000 <mm>  &
         HOLE-AREA=.1000000000 FLOOD-METH=GLITSCH6  &
         DECK-THICK=0.134 <IN> PCT-FLOOD-FA=80.00000000  &
         AER-PARAM-M=1.000000000 MAX-DC-LOAD=GLITSCH  &
         MAX-ACC-DP=.0250000000 MAX-PCT-DCB=100.0000000  &
         MAX-PCT-ENT=10.00000000 MIN-WEIR-LD=4.470981863  &
         MAX-WEIR-LD=117.3721131 MIN-PCT-DCA=.1000000000
     TRAY-SIZE 1 2 26 SIEVE
     INTERNALS CS-2 STAGE1=27 STAGE2=37 P-UPDATE=NO  &
         TRAYTYPE=SIEVE NPASS=1 SYSFAC=1.000000000  &
         OVER-DESIGN=1.000000000 WEIR-HT=50.80000000 <mm>  &
         DC-CLEAR=38.10000000 <mm> DC-WTOP-SIDE=115.4961446 <mm>  &
         DC-WBOT-SIDE=115.4961446 <mm> HOLE-DIAM=12.70000000 <mm>  &
         HOLE-AREA=.1000000000 FLOOD-METH=GLITSCH6  &
         DECK-THICK=0.134 <IN> PCT-FLOOD-FA=80.00000000  &
         AER-PARAM-M=1.000000000 MAX-DC-LOAD=GLITSCH  &
         MAX-ACC-DP=.0250000000 MAX-PCT-DCB=100.0000000  &
         MAX-PCT-ENT=10.00000000 MIN-WEIR-LD=4.470981863  &
         MAX-WEIR-LD=117.3721131 MIN-PCT-DCA=.1000000000
     TRAY-SIZE 2 27 37 SIEVE
     UTILITIES COND-UTIL=REFRIG1 REB-UTIL=LP

 PDF updated                                                                      TIME =      3.27
 THIS COPY OF ASPEN PLUS LICENSED TO JOHNS HOPKINS UNIVERSITY        
 
 


Calculations begin                                                              time      3.61


      UOS BLOCK RADFRAC1 MODEL: RADFRAC                                           TIME =      3.61

       Convergence iterations:
         OL   ML   IL     Err/Tol
          1    1    5      19.297    
          2    1    3     0.94516    

      UOS BLOCK RADFRAC2 MODEL: RADFRAC                                           TIME =      3.62

       Convergence iterations:
         OL   ML   IL     Err/Tol
          1    1    3      2.7890    
          2    1    2     0.52871E-01

      CHECKING PHASE EQUILIBRIUM RESULTS                                          TIME =      3.62

      CHECKING PHASE EQUILIBRIUM RESULTS                                          TIME =      3.62

 STREAM D1      
        SUBSTREAM MIXED     F =  3.125486181600329E-02  T =   128.753711186749      P =   525000.000000000    
                            H =  -23193958.2688872      V =   0.00000000000000      L =   1.00000000000000    
                            ENTROPY =  -3233.83363480603      DENSITY =   1106.84371035861      MW =   51.0800124934327    
        VINYL-01  2.017594193324514E-02  ACETY-01  1.078127725874624E-03  DICHL-01  1.513179340046004E-12
        OXYGE-01  3.836282705566147E-04  HYDRO-01  4.510939319303641E-03  WATER     1.719712924888091E-04
        NITROGEN  3.651082850814676E-03  CARBONMO  3.968568316102909E-04  METHANE   8.863135905963164E-04

 STREAM B1      
        SUBSTREAM MIXED     F =  3.488794373955241E-02  T =   308.689811813559      P =   525000.000000000    
                            H =   5917645.40530382      V =   0.00000000000000      L =   1.00000000000000    
                            ENTROPY =  -1925.58509874867      DENSITY =   892.359997165531      MW =   63.3625753025346    
        VINYL-01  3.406115866719630E-02  ACETY-01  8.131017865370550E-28  DICHL-01  8.267850711471273E-04
        OXYGE-01  2.847847056325846E-58  HYDRO-01  4.034906606748728E-28  WATER     1.208983606363586E-12
        NITROGEN  1.169085317967233E-59  CARBONMO  8.010064186915108E-60  METHANE   1.510710445809728E-49


*** INPUT SPECIFICATION MESSAGES ***

 FLOWSHEET    IS GENERATED BECAUSE OF OTHER CHANGES 04/17/2025   21:45:45:99 
 FLOWSHEET
     BLOCK RADFRAC1 IN=FEED OUT=D1 B1
     BLOCK RADFRAC2 IN=B1 OUT=D2 B2

 CHANGES WERE MADE TO BLOCK        RADFRAC1 04/17/2025   21:45:45:99 
 BLOCK RADFRAC1 RADFRAC
     SUBOBJECTS INTERNALS = CS-1 CS-2
     PARAM NSTAGE=34 ALGORITHM=STANDARD HYDRAULIC=NO MAXOL=25  &
         DAMPING=NONE
     PARAM2 STATIC-DP=YES OLD-SULZER=NO
     COL-CONFIG CONDENSER=TOTAL CA-CONFIG=INT-1
     FEEDS FEED 19
     PRODUCTS B1 34 L / D1 1 L
     P-SPEC 1 525. <kPa>
     COL-SPECS D:F=0.4784437159 MOLE-RR=0.37543209535
     REPORT NOHYDRAULIC
     INTERNALS CS-1 STAGE1=2 STAGE2=5 P-UPDATE=NO TRAYTYPE=SIEVE  &
         NPASS=1 SYSFAC=1.000000000 OVER-DESIGN=1.000000000  &
         WEIR-HT=50.80000000 <mm> DC-CLEAR=38.10000000 <mm>  &
         DC-WTOP-SIDE=151.9411456 <mm> DC-WBOT-SIDE=151.9411456 <mm>  &
         HOLE-DIAM=12.70000000 <mm> HOLE-AREA=.1000000000  &
         FLOOD-METH=GLITSCH6 DECK-THICK=0.134 <IN>  &
         PCT-FLOOD-FA=80.00000000 AER-PARAM-M=1.000000000  &
         MAX-DC-LOAD=GLITSCH MAX-ACC-DP=.0250000000  &
         MAX-PCT-DCB=100.0000000 MAX-PCT-ENT=10.00000000  &
         MIN-WEIR-LD=4.470981863 MAX-WEIR-LD=117.3721131  &
         MIN-PCT-DCA=.1000000000
     TRAY-SIZE 1 2 5 SIEVE
     INTERNALS CS-2 STAGE1=6 STAGE2=33 P-UPDATE=NO  &
         TRAYTYPE=SIEVE NPASS=1 SYSFAC=1.000000000  &
         OVER-DESIGN=1.000000000 WEIR-HT=50.80000000 <mm>  &
         DC-CLEAR=38.10000000 <mm> DC-WTOP-SIDE=151.9467667 <mm>  &
         DC-WBOT-SIDE=151.9467667 <mm> HOLE-DIAM=12.70000000 <mm>  &
         HOLE-AREA=.1000000000 FLOOD-METH=GLITSCH6  &
         DECK-THICK=0.134 <IN> PCT-FLOOD-FA=80.00000000  &
         AER-PARAM-M=1.000000000 MAX-DC-LOAD=GLITSCH  &
         MAX-ACC-DP=.0250000000 MAX-PCT-DCB=100.0000000  &
         MAX-PCT-ENT=10.00000000 MIN-WEIR-LD=4.470981863  &
         MAX-WEIR-LD=117.3721131 MIN-PCT-DCA=.1000000000
     TRAY-SIZE 2 6 33 SIEVE
     UTILITIES COND-UTIL=REFRIG4 REB-UTIL=LP

 CHANGES WERE MADE TO BLOCK        RADFRAC2 04/17/2025   21:45:45:99 
 BLOCK RADFRAC2 RADFRAC
     SUBOBJECTS INTERNALS = CS-1 CS-2
     PARAM NSTAGE=40 ALGORITHM=STANDARD HYDRAULIC=NO MAXOL=25  &
         DAMPING=NONE
     PARAM2 STATIC-DP=YES OLD-SULZER=NO
     COL-CONFIG CONDENSER=TOTAL CA-CONFIG=INT-1
     FEEDS B1 31
     PRODUCTS B2 40 L / D2 1 L
     P-SPEC 1 213. <kPa>
     COL-SPECS D:F=0.90422641214 MOLE-RR=0.74245855531
     REPORT NOHYDRAULIC
     INTERNALS CS-1 STAGE1=2 STAGE2=26 P-UPDATE=NO  &
         TRAYTYPE=SIEVE NPASS=1 SYSFAC=1.000000000  &
         OVER-DESIGN=1.000000000 WEIR-HT=50.80000000 <mm>  &
         DC-CLEAR=38.10000000 <mm> DC-WTOP-SIDE=143.3214141 <mm>  &
         DC-WBOT-SIDE=143.3214141 <mm> HOLE-DIAM=12.70000000 <mm>  &
         HOLE-AREA=.1000000000 FLOOD-METH=GLITSCH6  &
         DECK-THICK=0.134 <IN> PCT-FLOOD-FA=80.00000000  &
         AER-PARAM-M=1.000000000 MAX-DC-LOAD=GLITSCH  &
         MAX-ACC-DP=.0250000000 MAX-PCT-DCB=100.0000000  &
         MAX-PCT-ENT=10.00000000 MIN-WEIR-LD=4.470981863  &
         MAX-WEIR-LD=117.3721131 MIN-PCT-DCA=.1000000000
     TRAY-SIZE 1 2 26 SIEVE
     INTERNALS CS-2 STAGE1=27 STAGE2=39 P-UPDATE=NO  &
         TRAYTYPE=SIEVE NPASS=1 SYSFAC=1.000000000  &
         OVER-DESIGN=1.000000000 WEIR-HT=50.80000000 <mm>  &
         DC-CLEAR=38.10000000 <mm> DC-WTOP-SIDE=138.8532441 <mm>  &
         DC-WBOT-SIDE=138.8532441 <mm> HOLE-DIAM=12.70000000 <mm>  &
         HOLE-AREA=.1000000000 FLOOD-METH=GLITSCH6  &
         DECK-THICK=0.134 <IN> PCT-FLOOD-FA=80.00000000  &
         AER-PARAM-M=1.000000000 MAX-DC-LOAD=GLITSCH  &
         MAX-ACC-DP=.0250000000 MAX-PCT-DCB=100.0000000  &
         MAX-PCT-ENT=10.00000000 MIN-WEIR-LD=4.470981863  &
         MAX-WEIR-LD=117.3721131 MIN-PCT-DCA=.1000000000
     TRAY-SIZE 2 27 39 SIEVE
     UTILITIES COND-UTIL=REFRIG1 REB-UTIL=LP

 PDF updated                                                                      TIME =      5.13
 THIS COPY OF ASPEN PLUS LICENSED TO JOHNS HOPKINS UNIVERSITY        
 
 


Calculations begin                                                              time      5.38


      UOS BLOCK RADFRAC1 MODEL: RADFRAC                                           TIME =      5.38

       Convergence iterations:
         OL   ML   IL     Err/Tol
          1    1   10      17884.    
          2    1   10      5662.4    
          3    1   10      5300.5    
          4    1   10      3618.3    
          5    1   10      32661.    
          6    1    6      8490.8    
          7    1    4      25205.    
          8    1    7      9914.4    
          9    1    5      2310.5    
         10    1    6      944.35    
         11    1    3      679.03    
         12    1    3      354.62    
         13    1    3      135.82    
         14    1    4      67.601    
         15    1    3      22.990    
         16    1    4      5.0732    
         17    1    4      2.7313    
         18    1    3      1.0014    
         19    1    3     0.33809    

      UOS BLOCK RADFRAC2 MODEL: RADFRAC                                           TIME =      5.39

       Convergence iterations:
         OL   ML   IL     Err/Tol
          1    1    3     0.58849    

      CHECKING PHASE EQUILIBRIUM RESULTS                                          TIME =      5.39

      CHECKING PHASE EQUILIBRIUM RESULTS                                          TIME =      5.39

 STREAM D1      
        SUBSTREAM MIXED     F =  3.164560967005126E-02  T =   129.038470274893      P =   525000.000000000    
                            H =  -23010618.5504268      V =   0.00000000000000      L =   1.00000000000000    
                            ENTROPY =  -3232.78423183775      DENSITY =   1107.09707989415      MW =   51.2213990555468    
        VINYL-01  2.056697093182650E-02  ACETY-01  1.078127730279000E-03  DICHL-01  8.465982111094691E-19
        OXYGE-01  3.836282721238459E-04  HYDRO-01  4.510939337732027E-03  WATER     1.716901049107686E-04
        NITROGEN  3.651082865730394E-03  CARBONMO  3.968568332315645E-04  METHANE   8.863135942171606E-04

 STREAM B1      
        SUBSTREAM MIXED     F =  3.449719588550444E-02  T =   308.698484876719      P =   525000.000000000    
                            H =   5871473.15439288      V =   0.00000000000000      L =   1.00000000000000    
                            ENTROPY =  -1925.76962765514      DENSITY =   892.446520327535      MW =   63.3719998231696    
        VINYL-01  3.367012962637561E-02  ACETY-01  8.386025925128106E-17  DICHL-01  8.267850696389408E-04
        OXYGE-01  7.707245244497633E-37  HYDRO-01  8.984680655065133E-17  WATER     2.811894897143127E-07
        NITROGEN  2.063949537565791E-37  CARBONMO  7.499551626117874E-38  METHANE   5.242085419819265E-31

 STREAM D2      
        SUBSTREAM MIXED     F =  3.119327566444047E-02  T =   278.650634772083      P =   213000.000000000    
                            H =   6289860.10430339      V =   0.00000000000000      L =   1.00000000000000    
                            ENTROPY =  -2093.65191738994      DENSITY =   936.076473897868      MW =   62.4981190092183    
        VINYL-01  3.119299447503081E-02  ACETY-01  8.386025929484902E-17  DICHL-01  2.518908893197470E-30
        OXYGE-01   0.00000000000000      HYDRO-01  8.984680659733181E-17  WATER     2.811894094821820E-07
        NITROGEN   0.00000000000000      CARBONMO   0.00000000000000      METHANE    0.00000000000000    

 STREAM B2      
        SUBSTREAM MIXED     F =  3.303920221063975E-03  T =   286.579355527785      P =   213000.000000000    
                            H =  -34830117.2260958      V =   0.00000000000000      L =   1.00000000000000    
                            ENTROPY =  -2270.11966862872      DENSITY =   1010.01903082362      MW =   71.6225637459216    
        VINYL-01  2.477135155400601E-03  ACETY-01  5.829171218730579E-30  DICHL-01  8.267850655829948E-04
        OXYGE-01   0.00000000000000      HYDRO-01  3.914222954290330E-30  WATER     8.037823608025448E-14
        NITROGEN   0.00000000000000      CARBONMO   0.00000000000000      METHANE    0.00000000000000    


*** INPUT SPECIFICATION MESSAGES ***

 FLOWSHEET    IS GENERATED BECAUSE OF OTHER CHANGES 04/17/2025   21:45:47:99 
 FLOWSHEET
     BLOCK RADFRAC1 IN=FEED OUT=D1 B1
     BLOCK RADFRAC2 IN=B1 OUT=D2 B2

 CHANGES WERE MADE TO BLOCK        RADFRAC1 04/17/2025   21:45:47:99 
 BLOCK RADFRAC1 RADFRAC
     SUBOBJECTS INTERNALS = CS-1 CS-2
     PARAM NSTAGE=32 ALGORITHM=STANDARD HYDRAULIC=NO MAXOL=25  &
         DAMPING=NONE
     PARAM2 STATIC-DP=YES OLD-SULZER=NO
     COL-CONFIG CONDENSER=TOTAL CA-CONFIG=INT-1
     FEEDS FEED 27
     PRODUCTS B1 32 L / D1 1 L
     P-SPEC 1 525. <kPa>
     COL-SPECS D:F=0.47293392895 MOLE-RR=1.2052355966
     REPORT NOHYDRAULIC
     INTERNALS CS-1 STAGE1=2 STAGE2=5 P-UPDATE=NO TRAYTYPE=SIEVE  &
         NPASS=1 SYSFAC=1.000000000 OVER-DESIGN=1.000000000  &
         WEIR-HT=50.80000000 <mm> DC-CLEAR=38.10000000 <mm>  &
         DC-WTOP-SIDE=99.95531903 <mm> DC-WBOT-SIDE=99.95531903 <mm>  &
         HOLE-DIAM=12.70000000 <mm> HOLE-AREA=.1000000000  &
         FLOOD-METH=GLITSCH6 DECK-THICK=0.134 <IN>  &
         PCT-FLOOD-FA=80.00000000 AER-PARAM-M=1.000000000  &
         MAX-DC-LOAD=GLITSCH MAX-ACC-DP=.0250000000  &
         MAX-PCT-DCB=100.0000000 MAX-PCT-ENT=10.00000000  &
         MIN-WEIR-LD=4.470981863 MAX-WEIR-LD=117.3721131  &
         MIN-PCT-DCA=.1000000000
     TRAY-SIZE 1 2 5 SIEVE
     INTERNALS CS-2 STAGE1=6 STAGE2=31 P-UPDATE=NO  &
         TRAYTYPE=SIEVE NPASS=1 SYSFAC=1.000000000  &
         OVER-DESIGN=1.000000000 WEIR-HT=50.80000000 <mm>  &
         DC-CLEAR=38.10000000 <mm> DC-WTOP-SIDE=109.6749078 <mm>  &
         DC-WBOT-SIDE=109.6749078 <mm> HOLE-DIAM=12.70000000 <mm>  &
         HOLE-AREA=.1000000000 FLOOD-METH=GLITSCH6  &
         DECK-THICK=0.134 <IN> PCT-FLOOD-FA=80.00000000  &
         AER-PARAM-M=1.000000000 MAX-DC-LOAD=GLITSCH  &
         MAX-ACC-DP=.0250000000 MAX-PCT-DCB=100.0000000  &
         MAX-PCT-ENT=10.00000000 MIN-WEIR-LD=4.470981863  &
         MAX-WEIR-LD=117.3721131 MIN-PCT-DCA=.1000000000
     TRAY-SIZE 2 6 31 SIEVE
     UTILITIES COND-UTIL=REFRIG4 REB-UTIL=LP

 CHANGES WERE MADE TO BLOCK        RADFRAC2 04/17/2025   21:45:47:99 
 BLOCK RADFRAC2 RADFRAC
     SUBOBJECTS INTERNALS = CS-1 CS-2
     PARAM NSTAGE=36 ALGORITHM=STANDARD HYDRAULIC=NO MAXOL=25  &
         DAMPING=NONE
     PARAM2 STATIC-DP=YES OLD-SULZER=NO
     COL-CONFIG CONDENSER=TOTAL CA-CONFIG=INT-1
     FEEDS B1 12
     PRODUCTS B2 36 L / D2 1 L
     P-SPEC 1 213. <kPa>
     COL-SPECS D:F=0.90900023439 MOLE-RR=0.64246494334
     REPORT NOHYDRAULIC
     INTERNALS CS-1 STAGE1=2 STAGE2=26 P-UPDATE=NO  &
         TRAYTYPE=SIEVE NPASS=1 SYSFAC=1.000000000  &
         OVER-DESIGN=1.000000000 WEIR-HT=50.80000000 <mm>  &
         DC-CLEAR=38.10000000 <mm> DC-WTOP-SIDE=129.7659957 <mm>  &
         DC-WBOT-SIDE=129.7659957 <mm> HOLE-DIAM=12.70000000 <mm>  &
         HOLE-AREA=.1000000000 FLOOD-METH=GLITSCH6  &
         DECK-THICK=0.134 <IN> PCT-FLOOD-FA=80.00000000  &
         AER-PARAM-M=1.000000000 MAX-DC-LOAD=GLITSCH  &
         MAX-ACC-DP=.0250000000 MAX-PCT-DCB=100.0000000  &
         MAX-PCT-ENT=10.00000000 MIN-WEIR-LD=4.470981863  &
         MAX-WEIR-LD=117.3721131 MIN-PCT-DCA=.1000000000
     TRAY-SIZE 1 2 26 SIEVE
     INTERNALS CS-2 STAGE1=27 STAGE2=35 P-UPDATE=NO  &
         TRAYTYPE=SIEVE NPASS=1 SYSFAC=1.000000000  &
         OVER-DESIGN=1.000000000 WEIR-HT=50.80000000 <mm>  &
         DC-CLEAR=38.10000000 <mm> DC-WTOP-SIDE=129.7662320 <mm>  &
         DC-WBOT-SIDE=129.7662320 <mm> HOLE-DIAM=12.70000000 <mm>  &
         HOLE-AREA=.1000000000 FLOOD-METH=GLITSCH6  &
         DECK-THICK=0.134 <IN> PCT-FLOOD-FA=80.00000000  &
         AER-PARAM-M=1.000000000 MAX-DC-LOAD=GLITSCH  &
         MAX-ACC-DP=.0250000000 MAX-PCT-DCB=100.0000000  &
         MAX-PCT-ENT=10.00000000 MIN-WEIR-LD=4.470981863  &
         MAX-WEIR-LD=117.3721131 MIN-PCT-DCA=.1000000000
     TRAY-SIZE 2 27 35 SIEVE
     UTILITIES COND-UTIL=REFRIG1 REB-UTIL=LP

 PDF updated                                                                      TIME =      7.00
 THIS COPY OF ASPEN PLUS LICENSED TO JOHNS HOPKINS UNIVERSITY        
 
 


Calculations begin                                                              time      7.31


      UOS BLOCK RADFRAC1 MODEL: RADFRAC                                           TIME =      7.31

       Convergence iterations:
         OL   ML   IL     Err/Tol
          1    1    7      36.502    
          2    1    3     0.66614    

      UOS BLOCK RADFRAC2 MODEL: RADFRAC                                           TIME =      7.31

       Convergence iterations:
         OL   ML   IL     Err/Tol
          1    1    3      1.0284    
          2    1    2     0.24152E-01

      CHECKING PHASE EQUILIBRIUM RESULTS                                          TIME =      7.32

      CHECKING PHASE EQUILIBRIUM RESULTS                                          TIME =      7.32

 STREAM D1      
        SUBSTREAM MIXED     F =  3.128117690316486E-02  T =   128.772863164272      P =   525000.000000000    
                            H =  -23170752.2451325      V =   0.00000000000000      L =   1.00000000000000    
                            ENTROPY =  -3233.66714031747      DENSITY =   1106.85744901574      MW =   51.0913063703371    
        VINYL-01  2.020344460615773E-02  ACETY-01  1.078127294869163E-03  DICHL-01  1.003192754568995E-29
        OXYGE-01  3.836282801567172E-04  HYDRO-01  4.510938319383044E-03  WATER     1.707850061003149E-04
        NITROGEN  3.651082942181181E-03  CARBONMO  3.968568415414325E-04  METHANE   8.863136127752877E-04

 STREAM B1      
        SUBSTREAM MIXED     F =  3.486162865239083E-02  T =   308.688220958855      P =   525000.000000000    
                            H =   5905397.46205037      V =   0.00000000000000      L =   1.00000000000000    
                            ENTROPY =  -1925.60229191299      DENSITY =   892.374817301489      MW =   63.3617125013085    
        VINYL-01  3.403365573564574E-02  ACETY-01  4.579850452221929E-10  DICHL-01  8.267850541005120E-04
        OXYGE-01  1.382910529371855E-18  HYDRO-01  1.112804528347983E-09  WATER     1.186291854420956E-06
        NITROGEN  2.979811756765793E-18  CARBONMO  5.348927493453652E-19  METHANE   5.795218891945117E-16

 STREAM D2      
        SUBSTREAM MIXED     F =  3.168922861624043E-02  T =   278.648346162267      P =   213000.000000000    
                            H =   6282087.55657410      V =   0.00000000000000      L =   1.00000000000000    
                            ENTROPY =  -2093.66274931551      DENSITY =   936.084432375518      MW =   62.4968533209772    
        VINYL-01  3.168804075342534E-02  ACETY-01  4.579850452405105E-10  DICHL-01  1.704636471391050E-13
        OXYGE-01   0.00000000000000      HYDRO-01  1.112804528392491E-09  WATER     1.186291854468398E-06
        NITROGEN   0.00000000000000      CARBONMO   0.00000000000000      METHANE   5.795218892176902E-16

 STREAM B2      
        SUBSTREAM MIXED     F =  3.172400036150408E-03  T =   286.966475027132      P =   213000.000000000    
                            H =  -36527248.5971515      V =   0.00000000000000      L =   1.00000000000000    
                            ENTROPY =  -2277.55006599354      DENSITY =   1012.76940322901      MW =   72.0008248333026    
        VINYL-01  2.345614982550659E-03  ACETY-01  3.231116958468484E-40  DICHL-01  8.267850535997494E-04
        OXYGE-01   0.00000000000000      HYDRO-01  2.525946864833727E-40  WATER     3.899160443146664E-21
        NITROGEN   0.00000000000000      CARBONMO   0.00000000000000      METHANE   4.261244066412153E-71


*** INPUT SPECIFICATION MESSAGES ***

 FLOWSHEET    IS GENERATED BECAUSE OF OTHER CHANGES 04/17/2025   21:45:49:99 
 FLOWSHEET
     BLOCK RADFRAC1 IN=FEED OUT=D1 B1
     BLOCK RADFRAC2 IN=B1 OUT=D2 B2

 CHANGES WERE MADE TO BLOCK        RADFRAC1 04/17/2025   21:45:49:99 
 BLOCK RADFRAC1 RADFRAC
     SUBOBJECTS INTERNALS = CS-1 CS-2
     PARAM NSTAGE=32 ALGORITHM=STANDARD HYDRAULIC=NO MAXOL=25  &
         DAMPING=NONE
     PARAM2 STATIC-DP=YES OLD-SULZER=NO
     COL-CONFIG CONDENSER=TOTAL CA-CONFIG=INT-1
     FEEDS FEED 11
     PRODUCTS B1 32 L / D1 1 L
     P-SPEC 1 525. <kPa>
     COL-SPECS D:F=0.47918023077 MOLE-RR=1.3009919562
     REPORT NOHYDRAULIC
     INTERNALS CS-1 STAGE1=2 STAGE2=5 P-UPDATE=NO TRAYTYPE=SIEVE  &
         NPASS=1 SYSFAC=1.000000000 OVER-DESIGN=1.000000000  &
         WEIR-HT=50.80000000 <mm> DC-CLEAR=38.10000000 <mm>  &
         DC-WTOP-SIDE=139.9839431 <mm> DC-WBOT-SIDE=139.9839431 <mm>  &
         HOLE-DIAM=12.70000000 <mm> HOLE-AREA=.1000000000  &
         FLOOD-METH=GLITSCH6 DECK-THICK=0.134 <IN>  &
         PCT-FLOOD-FA=80.00000000 AER-PARAM-M=1.000000000  &
         MAX-DC-LOAD=GLITSCH MAX-ACC-DP=.0250000000  &
         MAX-PCT-DCB=100.0000000 MAX-PCT-ENT=10.00000000  &
         MIN-WEIR-LD=4.470981863 MAX-WEIR-LD=117.3721131  &
         MIN-PCT-DCA=.1000000000
     TRAY-SIZE 1 2 5 SIEVE
     INTERNALS CS-2 STAGE1=6 STAGE2=31 P-UPDATE=NO  &
         TRAYTYPE=SIEVE NPASS=1 SYSFAC=1.000000000  &
         OVER-DESIGN=1.000000000 WEIR-HT=50.80000000 <mm>  &
         DC-CLEAR=38.10000000 <mm> DC-WTOP-SIDE=139.9908125 <mm>  &
         DC-WBOT-SIDE=139.9908125 <mm> HOLE-DIAM=12.70000000 <mm>  &
         HOLE-AREA=.1000000000 FLOOD-METH=GLITSCH6  &
         DECK-THICK=0.134 <IN> PCT-FLOOD-FA=80.00000000  &
         AER-PARAM-M=1.000000000 MAX-DC-LOAD=GLITSCH  &
         MAX-ACC-DP=.0250000000 MAX-PCT-DCB=100.0000000  &
         MAX-PCT-ENT=10.00000000 MIN-WEIR-LD=4.470981863  &
         MAX-WEIR-LD=117.3721131 MIN-PCT-DCA=.1000000000
     TRAY-SIZE 2 6 31 SIEVE
     UTILITIES COND-UTIL=REFRIG4 REB-UTIL=LP

 CHANGES WERE MADE TO BLOCK        RADFRAC2 04/17/2025   21:45:49:99 
 BLOCK RADFRAC2 RADFRAC
     SUBOBJECTS INTERNALS = CS-1 CS-2
     PARAM NSTAGE=41 ALGORITHM=STANDARD HYDRAULIC=NO MAXOL=25  &
         DAMPING=NONE
     PARAM2 STATIC-DP=YES OLD-SULZER=NO
     COL-CONFIG CONDENSER=TOTAL CA-CONFIG=INT-1
     FEEDS B1 22
     PRODUCTS B2 41 L / D2 1 L
     P-SPEC 1 213. <kPa>
     COL-SPECS D:F=0.90397489367 MOLE-RR=0.88715633205
     REPORT NOHYDRAULIC
     INTERNALS CS-1 STAGE1=2 STAGE2=26 P-UPDATE=NO  &
         TRAYTYPE=SIEVE NPASS=1 SYSFAC=1.000000000  &
         OVER-DESIGN=1.000000000 WEIR-HT=50.80000000 <mm>  &
         DC-CLEAR=38.10000000 <mm> DC-WTOP-SIDE=126.8179521 <mm>  &
         DC-WBOT-SIDE=126.8179521 <mm> HOLE-DIAM=12.70000000 <mm>  &
         HOLE-AREA=.1000000000 FLOOD-METH=GLITSCH6  &
         DECK-THICK=0.134 <IN> PCT-FLOOD-FA=80.00000000  &
         AER-PARAM-M=1.000000000 MAX-DC-LOAD=GLITSCH  &
         MAX-ACC-DP=.0250000000 MAX-PCT-DCB=100.0000000  &
         MAX-PCT-ENT=10.00000000 MIN-WEIR-LD=4.470981863  &
         MAX-WEIR-LD=117.3721131 MIN-PCT-DCA=.1000000000
     TRAY-SIZE 1 2 26 SIEVE
     INTERNALS CS-2 STAGE1=27 STAGE2=40 P-UPDATE=NO  &
         TRAYTYPE=SIEVE NPASS=1 SYSFAC=1.000000000  &
         OVER-DESIGN=1.000000000 WEIR-HT=50.80000000 <mm>  &
         DC-CLEAR=38.10000000 <mm> DC-WTOP-SIDE=121.4850743 <mm>  &
         DC-WBOT-SIDE=121.4850743 <mm> HOLE-DIAM=12.70000000 <mm>  &
         HOLE-AREA=.1000000000 FLOOD-METH=GLITSCH6  &
         DECK-THICK=0.134 <IN> PCT-FLOOD-FA=80.00000000  &
         AER-PARAM-M=1.000000000 MAX-DC-LOAD=GLITSCH  &
         MAX-ACC-DP=.0250000000 MAX-PCT-DCB=100.0000000  &
         MAX-PCT-ENT=10.00000000 MIN-WEIR-LD=4.470981863  &
         MAX-WEIR-LD=117.3721131 MIN-PCT-DCA=.1000000000
     TRAY-SIZE 2 27 40 SIEVE
     UTILITIES COND-UTIL=REFRIG1 REB-UTIL=LP

 PDF updated                                                                      TIME =      8.99
 THIS COPY OF ASPEN PLUS LICENSED TO JOHNS HOPKINS UNIVERSITY        
 
 


Calculations begin                                                              time      9.28


      UOS BLOCK RADFRAC1 MODEL: RADFRAC                                           TIME =      9.28

       Convergence iterations:
         OL   ML   IL     Err/Tol
          1    1    5      18.264    
          2    1    3     0.83999    

      UOS BLOCK RADFRAC2 MODEL: RADFRAC                                           TIME =      9.29

       Convergence iterations:
         OL   ML   IL     Err/Tol
          1    1    3      1.1846    
          2    1    2     0.26612E-01

      CHECKING PHASE EQUILIBRIUM RESULTS                                          TIME =      9.29

      CHECKING PHASE EQUILIBRIUM RESULTS                                          TIME =      9.29

 STREAM D1      
        SUBSTREAM MIXED     F =  3.169432482988643E-02  T =   129.073691723084      P =   525000.000000000    
                            H =  -22990918.3900349      V =   0.00000000000000      L =   1.00000000000000    
                            ENTROPY =  -3232.67845358821      DENSITY =   1107.12882329485      MW =   51.2383377099642    
        VINYL-01  2.061540491675714E-02  ACETY-01  1.078127730555656E-03  DICHL-01  2.322113805754062E-14
        OXYGE-01  3.836282722222581E-04  HYDRO-01  4.510939338889308E-03  WATER     1.719712769939399E-04
        NITROGEN  3.651082866667007E-03  CARBONMO  3.968568333333703E-04  METHANE   8.863135944445274E-04

 STREAM B1      
        SUBSTREAM MIXED     F =  3.444848072566926E-02  T =   308.700170244977      P =   525000.000000000    
                            H =   5868156.80792937      V =   0.00000000000000      L =   1.00000000000000    
                            ENTROPY =  -1925.79334243273      DENSITY =   892.454968363471      MW =   63.3735981271704    
        VINYL-01  3.362169563879759E-02  ACETY-01  8.381031663856653E-25  DICHL-01  8.267850694211562E-04
        OXYGE-01  8.582045668491516E-52  HYDRO-01  5.351785746081074E-25  WATER     1.745052056792372E-11
        NITROGEN  6.586055620563547E-53  CARBONMO  3.651993935824389E-53  METHANE   4.948312242063195E-44

 STREAM D2      
        SUBSTREAM MIXED     F =  3.114056170107994E-02  T =   278.651356411842      P =   213000.000000000    
                            H =   6292324.31233235      V =   0.00000000000000      L =   1.00000000000000    
                            ENTROPY =  -2093.65072052817      DENSITY =   936.073956071398      MW =   62.4985199750725    
        VINYL-01  3.114056168362942E-02  ACETY-01   0.00000000000000      DICHL-01  2.025193912973212E-23
        OXYGE-01   0.00000000000000      HYDRO-01   0.00000000000000      WATER     1.745052057425893E-11
        NITROGEN   0.00000000000000      CARBONMO   0.00000000000000      METHANE    0.00000000000000    

 STREAM B2      
        SUBSTREAM MIXED     F =  3.307919024589327E-03  T =   286.566316314851      P =   213000.000000000    
                            H =  -34780839.6238707      V =   0.00000000000000      L =   1.00000000000000    
                            ENTROPY =  -2269.91259900517      DENSITY =   1009.94147069829      MW =   71.6115340871385    
        VINYL-01  2.481133958002569E-03  ACETY-01   0.00000000000000      DICHL-01  8.267850665867580E-04
        OXYGE-01   0.00000000000000      HYDRO-01   0.00000000000000      WATER     1.961742288531538E-23
        NITROGEN   0.00000000000000      CARBONMO   0.00000000000000      METHANE    0.00000000000000    


*** INPUT SPECIFICATION MESSAGES ***

 FLOWSHEET    IS GENERATED BECAUSE OF OTHER CHANGES 04/17/2025   21:45:51:99 
 FLOWSHEET
     BLOCK RADFRAC1 IN=FEED OUT=D1 B1
     BLOCK RADFRAC2 IN=B1 OUT=D2 B2

 CHANGES WERE MADE TO BLOCK        RADFRAC1 04/17/2025   21:45:51:99 
 BLOCK RADFRAC1 RADFRAC
     SUBOBJECTS INTERNALS = CS-1 CS-2
     PARAM NSTAGE=35 ALGORITHM=STANDARD HYDRAULIC=NO MAXOL=25  &
         DAMPING=NONE
     PARAM2 STATIC-DP=YES OLD-SULZER=NO
     COL-CONFIG CONDENSER=TOTAL CA-CONFIG=INT-1
     FEEDS FEED 3
     PRODUCTS B1 35 L / D1 1 L
     P-SPEC 1 525. <kPa>
     COL-SPECS D:F=0.47881053028 MOLE-RR=1.2180913996
     REPORT NOHYDRAULIC
     INTERNALS CS-1 STAGE1=2 STAGE2=5 P-UPDATE=NO TRAYTYPE=SIEVE  &
         NPASS=1 SYSFAC=1.000000000 OVER-DESIGN=1.000000000  &
         WEIR-HT=50.80000000 <mm> DC-CLEAR=38.10000000 <mm>  &
         DC-WTOP-SIDE=145.2727940 <mm> DC-WBOT-SIDE=145.2727940 <mm>  &
         HOLE-DIAM=12.70000000 <mm> HOLE-AREA=.1000000000  &
         FLOOD-METH=GLITSCH6 DECK-THICK=0.134 <IN>  &
         PCT-FLOOD-FA=80.00000000 AER-PARAM-M=1.000000000  &
         MAX-DC-LOAD=GLITSCH MAX-ACC-DP=.0250000000  &
         MAX-PCT-DCB=100.0000000 MAX-PCT-ENT=10.00000000  &
         MIN-WEIR-LD=4.470981863 MAX-WEIR-LD=117.3721131  &
         MIN-PCT-DCA=.1000000000
     TRAY-SIZE 1 2 5 SIEVE
     INTERNALS CS-2 STAGE1=6 STAGE2=34 P-UPDATE=NO  &
         TRAYTYPE=SIEVE NPASS=1 SYSFAC=1.000000000  &
         OVER-DESIGN=1.000000000 WEIR-HT=50.80000000 <mm>  &
         DC-CLEAR=38.10000000 <mm> DC-WTOP-SIDE=145.2789539 <mm>  &
         DC-WBOT-SIDE=145.2789539 <mm> HOLE-DIAM=12.70000000 <mm>  &
         HOLE-AREA=.1000000000 FLOOD-METH=GLITSCH6  &
         DECK-THICK=0.134 <IN> PCT-FLOOD-FA=80.00000000  &
         AER-PARAM-M=1.000000000 MAX-DC-LOAD=GLITSCH  &
         MAX-ACC-DP=.0250000000 MAX-PCT-DCB=100.0000000  &
         MAX-PCT-ENT=10.00000000 MIN-WEIR-LD=4.470981863  &
         MAX-WEIR-LD=117.3721131 MIN-PCT-DCA=.1000000000
     TRAY-SIZE 2 6 34 SIEVE
     UTILITIES COND-UTIL=REFRIG4 REB-UTIL=LP

 CHANGES WERE MADE TO BLOCK        RADFRAC2 04/17/2025   21:45:51:99 
 BLOCK RADFRAC2 RADFRAC
     SUBOBJECTS INTERNALS = CS-1 CS-2
     PARAM NSTAGE=37 ALGORITHM=STANDARD HYDRAULIC=NO MAXOL=25  &
         DAMPING=NONE
     PARAM2 STATIC-DP=YES OLD-SULZER=NO
     COL-CONFIG CONDENSER=TOTAL CA-CONFIG=INT-1
     FEEDS B1 7
     PRODUCTS B2 37 L / D2 1 L
     P-SPEC 1 213. <kPa>
     COL-SPECS D:F=0.90555502804 MOLE-RR=1.0606532495
     REPORT NOHYDRAULIC
     INTERNALS CS-1 STAGE1=2 STAGE2=26 P-UPDATE=NO  &
         TRAYTYPE=SIEVE NPASS=1 SYSFAC=1.000000000  &
         OVER-DESIGN=1.000000000 WEIR-HT=50.80000000 <mm>  &
         DC-CLEAR=38.10000000 <mm> DC-WTOP-SIDE=135.1827620 <mm>  &
         DC-WBOT-SIDE=135.1827620 <mm> HOLE-DIAM=12.70000000 <mm>  &
         HOLE-AREA=.1000000000 FLOOD-METH=GLITSCH6  &
         DECK-THICK=0.134 <IN> PCT-FLOOD-FA=80.00000000  &
         AER-PARAM-M=1.000000000 MAX-DC-LOAD=GLITSCH  &
         MAX-ACC-DP=.0250000000 MAX-PCT-DCB=100.0000000  &
         MAX-PCT-ENT=10.00000000 MIN-WEIR-LD=4.470981863  &
         MAX-WEIR-LD=117.3721131 MIN-PCT-DCA=.1000000000
     TRAY-SIZE 1 2 26 SIEVE
     INTERNALS CS-2 STAGE1=27 STAGE2=36 P-UPDATE=NO  &
         TRAYTYPE=SIEVE NPASS=1 SYSFAC=1.000000000  &
         OVER-DESIGN=1.000000000 WEIR-HT=50.80000000 <mm>  &
         DC-CLEAR=38.10000000 <mm> DC-WTOP-SIDE=130.3726971 <mm>  &
         DC-WBOT-SIDE=130.3726971 <mm> HOLE-DIAM=12.70000000 <mm>  &
         HOLE-AREA=.1000000000 FLOOD-METH=GLITSCH6  &
         DECK-THICK=0.134 <IN> PCT-FLOOD-FA=80.00000000  &
         AER-PARAM-M=1.000000000 MAX-DC-LOAD=GLITSCH  &
         MAX-ACC-DP=.0250000000 MAX-PCT-DCB=100.0000000  &
         MAX-PCT-ENT=10.00000000 MIN-WEIR-LD=4.470981863  &
         MAX-WEIR-LD=117.3721131 MIN-PCT-DCA=.1000000000
     TRAY-SIZE 2 27 36 SIEVE
     UTILITIES COND-UTIL=REFRIG1 REB-UTIL=LP

 PDF updated                                                                      TIME =     10.85
 THIS COPY OF ASPEN PLUS LICENSED TO JOHNS HOPKINS UNIVERSITY        
 
 


Calculations begin                                                              time     11.13


      UOS BLOCK RADFRAC1 MODEL: RADFRAC                                           TIME =     11.13

       Convergence iterations:
         OL   ML   IL     Err/Tol
          1    1    3      18.074    
          2    1    2     0.84840    

      UOS BLOCK RADFRAC2 MODEL: RADFRAC                                           TIME =     11.14

       Convergence iterations:
         OL   ML   IL     Err/Tol
          1    1    3     0.83229    

      CHECKING PHASE EQUILIBRIUM RESULTS                                          TIME =     11.14

      CHECKING PHASE EQUILIBRIUM RESULTS                                          TIME =     11.14


*** INPUT SPECIFICATION MESSAGES ***

 FLOWSHEET    IS GENERATED BECAUSE OF OTHER CHANGES 04/17/2025   21:45:53:99 
 FLOWSHEET
     BLOCK RADFRAC1 IN=FEED OUT=D1 B1
     BLOCK RADFRAC2 IN=B1 OUT=D2 B2

 CHANGES WERE MADE TO BLOCK        RADFRAC1 04/17/2025   21:45:53:99 
 BLOCK RADFRAC1 RADFRAC
     SUBOBJECTS INTERNALS = CS-1 CS-2
     PARAM NSTAGE=35 ALGORITHM=STANDARD HYDRAULIC=NO MAXOL=25  &
         DAMPING=NONE
     PARAM2 STATIC-DP=YES OLD-SULZER=NO
     COL-CONFIG CONDENSER=TOTAL CA-CONFIG=INT-1
     FEEDS FEED 3
     PRODUCTS B1 35 L / D1 1 L
     P-SPEC 1 525. <kPa>
     COL-SPECS D:F=0.47125337754 MOLE-RR=0.94808729274
     REPORT NOHYDRAULIC
     INTERNALS CS-1 STAGE1=2 STAGE2=5 P-UPDATE=NO TRAYTYPE=SIEVE  &
         NPASS=1 SYSFAC=1.000000000 OVER-DESIGN=1.000000000  &
         WEIR-HT=50.80000000 <mm> DC-CLEAR=38.10000000 <mm>  &
         DC-WTOP-SIDE=138.7794296 <mm> DC-WBOT-SIDE=138.7794296 <mm>  &
         HOLE-DIAM=12.70000000 <mm> HOLE-AREA=.1000000000  &
         FLOOD-METH=GLITSCH6 DECK-THICK=0.134 <IN>  &
         PCT-FLOOD-FA=80.00000000 AER-PARAM-M=1.000000000  &
         MAX-DC-LOAD=GLITSCH MAX-ACC-DP=.0250000000  &
         MAX-PCT-DCB=100.0000000 MAX-PCT-ENT=10.00000000  &
         MIN-WEIR-LD=4.470981863 MAX-WEIR-LD=117.3721131  &
         MIN-PCT-DCA=.1000000000
     TRAY-SIZE 1 2 5 SIEVE
     INTERNALS CS-2 STAGE1=6 STAGE2=34 P-UPDATE=NO  &
         TRAYTYPE=SIEVE NPASS=1 SYSFAC=1.000000000  &
         OVER-DESIGN=1.000000000 WEIR-HT=50.80000000 <mm>  &
         DC-CLEAR=38.10000000 <mm> DC-WTOP-SIDE=138.8412639 <mm>  &
         DC-WBOT-SIDE=138.8412639 <mm> HOLE-DIAM=12.70000000 <mm>  &
         HOLE-AREA=.1000000000 FLOOD-METH=GLITSCH6  &
         DECK-THICK=0.134 <IN> PCT-FLOOD-FA=80.00000000  &
         AER-PARAM-M=1.000000000 MAX-DC-LOAD=GLITSCH  &
         MAX-ACC-DP=.0250000000 MAX-PCT-DCB=100.0000000  &
         MAX-PCT-ENT=10.00000000 MIN-WEIR-LD=4.470981863  &
         MAX-WEIR-LD=117.3721131 MIN-PCT-DCA=.1000000000
     TRAY-SIZE 2 6 34 SIEVE
     UTILITIES COND-UTIL=REFRIG4 REB-UTIL=LP

 CHANGES WERE MADE TO BLOCK        RADFRAC2 04/17/2025   21:45:53:99 
 BLOCK RADFRAC2 RADFRAC
     SUBOBJECTS INTERNALS = CS-1 CS-2
     PARAM NSTAGE=41 ALGORITHM=STANDARD HYDRAULIC=NO MAXOL=25  &
         DAMPING=NONE
     PARAM2 STATIC-DP=YES OLD-SULZER=NO
     COL-CONFIG CONDENSER=TOTAL CA-CONFIG=INT-1
     FEEDS B1 17
     PRODUCTS B2 41 L / D2 1 L
     P-SPEC 1 213. <kPa>
     COL-SPECS D:F=0.9063476917 MOLE-RR=0.48203510772
     REPORT NOHYDRAULIC
     INTERNALS CS-1 STAGE1=2 STAGE2=26 P-UPDATE=NO  &
         TRAYTYPE=SIEVE NPASS=1 SYSFAC=1.000000000  &
         OVER-DESIGN=1.000000000 WEIR-HT=50.80000000 <mm>  &
         DC-CLEAR=38.10000000 <mm> DC-WTOP-SIDE=141.7345268 <mm>  &
         DC-WBOT-SIDE=141.7345268 <mm> HOLE-DIAM=12.70000000 <mm>  &
         HOLE-AREA=.1000000000 FLOOD-METH=GLITSCH6  &
         DECK-THICK=0.134 <IN> PCT-FLOOD-FA=80.00000000  &
         AER-PARAM-M=1.000000000 MAX-DC-LOAD=GLITSCH  &
         MAX-ACC-DP=.0250000000 MAX-PCT-DCB=100.0000000  &
         MAX-PCT-ENT=10.00000000 MIN-WEIR-LD=4.470981863  &
         MAX-WEIR-LD=117.3721131 MIN-PCT-DCA=.1000000000
     TRAY-SIZE 1 2 26 SIEVE
     INTERNALS CS-2 STAGE1=27 STAGE2=40 P-UPDATE=NO  &
         TRAYTYPE=SIEVE NPASS=1 SYSFAC=1.000000000  &
         OVER-DESIGN=1.000000000 WEIR-HT=50.80000000 <mm>  &
         DC-CLEAR=38.10000000 <mm> DC-WTOP-SIDE=137.2600661 <mm>  &
         DC-WBOT-SIDE=137.2600661 <mm> HOLE-DIAM=12.70000000 <mm>  &
         HOLE-AREA=.1000000000 FLOOD-METH=GLITSCH6  &
         DECK-THICK=0.134 <IN> PCT-FLOOD-FA=80.00000000  &
         AER-PARAM-M=1.000000000 MAX-DC-LOAD=GLITSCH  &
         MAX-ACC-DP=.0250000000 MAX-PCT-DCB=100.0000000  &
         MAX-PCT-ENT=10.00000000 MIN-WEIR-LD=4.470981863  &
         MAX-WEIR-LD=117.3721131 MIN-PCT-DCA=.1000000000
     TRAY-SIZE 2 27 40 SIEVE
     UTILITIES COND-UTIL=REFRIG1 REB-UTIL=LP

 PDF updated                                                                      TIME =     12.86
 THIS COPY OF ASPEN PLUS LICENSED TO JOHNS HOPKINS UNIVERSITY        
 
 


Calculations begin                                                              time     13.15


      UOS BLOCK RADFRAC1 MODEL: RADFRAC                                           TIME =     13.15

       Convergence iterations:
         OL   ML   IL     Err/Tol
          1    1    3      1.2756    
          2    1    2     0.87393E-01

      UOS BLOCK RADFRAC2 MODEL: RADFRAC                                           TIME =     13.16

       Convergence iterations:
         OL   ML   IL     Err/Tol
          1    1    4     0.71373    

      CHECKING PHASE EQUILIBRIUM RESULTS                                          TIME =     13.16

      CHECKING PHASE EQUILIBRIUM RESULTS                                          TIME =     13.16

 STREAM D2      
        SUBSTREAM MIXED     F =  3.169750299108435E-02  T =   278.651356455441      P =   213000.000000000    
                            H =   6292324.46110811      V =   0.00000000000000      L =   1.00000000000000    
                            ENTROPY =  -2093.65072114943      DENSITY =   936.073955919338      MW =   62.4985199992809    
        VINYL-01  3.169750299057156E-02  ACETY-01   0.00000000000000      DICHL-01  2.085400562346175E-16
        OXYGE-01   0.00000000000000      HYDRO-01   0.00000000000000      WATER     5.125741144825168E-13
        NITROGEN   0.00000000000000      CARBONMO   0.00000000000000      METHANE    0.00000000000000    

 STREAM B2      
        SUBSTREAM MIXED     F =  3.275282046444228E-03  T =   286.640522249827      P =   213000.000000000    
                            H =  -35104348.9122383      V =   0.00000000000000      L =   1.00000000000000    
                            ENTROPY =  -2271.32800239315      DENSITY =   1010.46648098949      MW =   71.6836480922533    
        VINYL-01  2.450176257438671E-03  ACETY-01   0.00000000000000      DICHL-01  8.251057890055566E-04
        OXYGE-01   0.00000000000000      HYDRO-01   0.00000000000000      WATER     2.479824747988405E-27
        NITROGEN   0.00000000000000      CARBONMO   0.00000000000000      METHANE    0.00000000000000    


*** INPUT SPECIFICATION MESSAGES ***

 FLOWSHEET    IS GENERATED BECAUSE OF OTHER CHANGES 04/17/2025   21:45:55:99 
 FLOWSHEET
     BLOCK RADFRAC1 IN=FEED OUT=D1 B1
     BLOCK RADFRAC2 IN=B1 OUT=D2 B2

 CHANGES WERE MADE TO BLOCK        RADFRAC1 04/17/2025   21:45:55:99 
 BLOCK RADFRAC1 RADFRAC
     SUBOBJECTS INTERNALS = CS-1 CS-2
     PARAM NSTAGE=34 ALGORITHM=STANDARD HYDRAULIC=NO MAXOL=25  &
         DAMPING=NONE
     PARAM2 STATIC-DP=YES OLD-SULZER=NO
     COL-CONFIG CONDENSER=TOTAL CA-CONFIG=INT-1
     FEEDS FEED 4
     PRODUCTS B1 34 L / D1 1 L
     P-SPEC 1 525. <kPa>
     COL-SPECS D:F=0.4632471912 MOLE-RR=0.59071943927
     REPORT NOHYDRAULIC
     INTERNALS CS-1 STAGE1=2 STAGE2=5 P-UPDATE=NO TRAYTYPE=SIEVE  &
         NPASS=1 SYSFAC=1.000000000 OVER-DESIGN=1.000000000  &
         WEIR-HT=50.80000000 <mm> DC-CLEAR=38.10000000 <mm>  &
         DC-WTOP-SIDE=127.4549544 <mm> DC-WBOT-SIDE=127.4549544 <mm>  &
         HOLE-DIAM=12.70000000 <mm> HOLE-AREA=.1000000000  &
         FLOOD-METH=GLITSCH6 DECK-THICK=0.134 <IN>  &
         PCT-FLOOD-FA=80.00000000 AER-PARAM-M=1.000000000  &
         MAX-DC-LOAD=GLITSCH MAX-ACC-DP=.0250000000  &
         MAX-PCT-DCB=100.0000000 MAX-PCT-ENT=10.00000000  &
         MIN-WEIR-LD=4.470981863 MAX-WEIR-LD=117.3721131  &
         MIN-PCT-DCA=.1000000000
     TRAY-SIZE 1 2 5 SIEVE
     INTERNALS CS-2 STAGE1=6 STAGE2=33 P-UPDATE=NO  &
         TRAYTYPE=SIEVE NPASS=1 SYSFAC=1.000000000  &
         OVER-DESIGN=1.000000000 WEIR-HT=50.80000000 <mm>  &
         DC-CLEAR=38.10000000 <mm> DC-WTOP-SIDE=127.8690673 <mm>  &
         DC-WBOT-SIDE=127.8690673 <mm> HOLE-DIAM=12.70000000 <mm>  &
         HOLE-AREA=.1000000000 FLOOD-METH=GLITSCH6  &
         DECK-THICK=0.134 <IN> PCT-FLOOD-FA=80.00000000  &
         AER-PARAM-M=1.000000000 MAX-DC-LOAD=GLITSCH  &
         MAX-ACC-DP=.0250000000 MAX-PCT-DCB=100.0000000  &
         MAX-PCT-ENT=10.00000000 MIN-WEIR-LD=4.470981863  &
         MAX-WEIR-LD=117.3721131 MIN-PCT-DCA=.1000000000
     TRAY-SIZE 2 6 33 SIEVE
     UTILITIES COND-UTIL=REFRIG4 REB-UTIL=LP

 CHANGES WERE MADE TO BLOCK        RADFRAC2 04/17/2025   21:45:55:99 
 BLOCK RADFRAC2 RADFRAC
     SUBOBJECTS INTERNALS = CS-1 CS-2
     PARAM NSTAGE=40 ALGORITHM=STANDARD HYDRAULIC=NO MAXOL=25  &
         DAMPING=NONE
     PARAM2 STATIC-DP=YES OLD-SULZER=NO
     COL-CONFIG CONDENSER=TOTAL CA-CONFIG=INT-1
     FEEDS B1 7
     PRODUCTS B2 40 L / D2 1 L
     P-SPEC 1 213. <kPa>
     COL-SPECS D:F=0.89590423764 MOLE-RR=1.0005495248
     REPORT NOHYDRAULIC
     INTERNALS CS-1 STAGE1=2 STAGE2=26 P-UPDATE=NO  &
         TRAYTYPE=SIEVE NPASS=1 SYSFAC=1.000000000  &
         OVER-DESIGN=1.000000000 WEIR-HT=50.80000000 <mm>  &
         DC-CLEAR=38.10000000 <mm> DC-WTOP-SIDE=120.1928776 <mm>  &
         DC-WBOT-SIDE=120.1928776 <mm> HOLE-DIAM=12.70000000 <mm>  &
         HOLE-AREA=.1000000000 FLOOD-METH=GLITSCH6  &
         DECK-THICK=0.134 <IN> PCT-FLOOD-FA=80.00000000  &
         AER-PARAM-M=1.000000000 MAX-DC-LOAD=GLITSCH  &
         MAX-ACC-DP=.0250000000 MAX-PCT-DCB=100.0000000  &
         MAX-PCT-ENT=10.00000000 MIN-WEIR-LD=4.470981863  &
         MAX-WEIR-LD=117.3721131 MIN-PCT-DCA=.1000000000
     TRAY-SIZE 1 2 26 SIEVE
     INTERNALS CS-2 STAGE1=27 STAGE2=39 P-UPDATE=NO  &
         TRAYTYPE=SIEVE NPASS=1 SYSFAC=1.000000000  &
         OVER-DESIGN=1.000000000 WEIR-HT=50.80000000 <mm>  &
         DC-CLEAR=38.10000000 <mm> DC-WTOP-SIDE=114.4118711 <mm>  &
         DC-WBOT-SIDE=114.4118711 <mm> HOLE-DIAM=12.70000000 <mm>  &
         HOLE-AREA=.1000000000 FLOOD-METH=GLITSCH6  &
         DECK-THICK=0.134 <IN> PCT-FLOOD-FA=80.00000000  &
         AER-PARAM-M=1.000000000 MAX-DC-LOAD=GLITSCH  &
         MAX-ACC-DP=.0250000000 MAX-PCT-DCB=100.0000000  &
         MAX-PCT-ENT=10.00000000 MIN-WEIR-LD=4.470981863  &
         MAX-WEIR-LD=117.3721131 MIN-PCT-DCA=.1000000000
     TRAY-SIZE 2 27 39 SIEVE
     UTILITIES COND-UTIL=REFRIG1 REB-UTIL=LP

 PDF updated                                                                      TIME =     14.94
 THIS COPY OF ASPEN PLUS LICENSED TO JOHNS HOPKINS UNIVERSITY        
 
 


Calculations begin                                                              time     15.29


      UOS BLOCK RADFRAC1 MODEL: RADFRAC                                           TIME =     15.29

       Convergence iterations:
         OL   ML   IL     Err/Tol
          1    1   10      8027.6    
          2    1    7      4999.5    
          3    1    5      185.12    
          4    1    5      38.886    
          5    1    4      27.778    
          6    1    5      12.059    
          7    1    4      3.6200    
          8    1    3      1.0346    
          9    1    4     0.42616    

      UOS BLOCK RADFRAC2 MODEL: RADFRAC                                           TIME =     15.30

       Convergence iterations:
         OL   ML   IL     Err/Tol
          1    1    3      3.2840    
          2    1    2     0.60063E-01

      CHECKING PHASE EQUILIBRIUM RESULTS                                          TIME =     15.30

      CHECKING PHASE EQUILIBRIUM RESULTS                                          TIME =     15.30

 STREAM D1      
        SUBSTREAM MIXED     F =  3.064046889169895E-02  T =   128.302022515182      P =   525000.000000000    
                            H =  -23487750.3687050      V =   0.00000000000000      L =   1.00000000000000    
                            ENTROPY =  -3235.33270705821      DENSITY =   1106.41422650337      MW =   50.8514082183924    
        VINYL-01  1.956124995916830E-02  ACETY-01  1.078127731151022E-03  DICHL-01  2.990985883915469E-07
        OXYGE-01  3.836282724341060E-04  HYDRO-01  4.510939341380346E-03  WATER     1.719711918070701E-04
        NITROGEN  3.651082868683215E-03  CARBONMO  3.968568335525233E-04  METHANE   8.863135949339686E-04

 STREAM B1      
        SUBSTREAM MIXED     F =  3.550233666385676E-02  T =   308.675476922994      P =   525000.000000000    
                            H =   5986158.32768414      V =   0.00000000000000      L =   1.00000000000000    
                            ENTROPY =  -1925.29749838571      DENSITY =   892.228477951450      MW =   63.3473149159382    
        VINYL-01  3.467585059066215E-02  ACETY-01  1.157641353211166E-29  DICHL-01  8.264859704622539E-04
        OXYGE-01  5.094093159066723E-67  HYDRO-01  3.537576046569250E-30  WATER     1.027323565503302E-10
        NITROGEN  5.999573898742116E-69  CARBONMO  6.270892017689423E-69  METHANE   2.271212630325316E-56

 STREAM D2      
        SUBSTREAM MIXED     F =  3.180669386327123E-02  T =   278.651356696098      P =   213000.000000000    
                            H =   6292320.54793072      V =   0.00000000000000      L =   1.00000000000000    
                            ENTROPY =  -2093.65069307920      DENSITY =   936.073962801180      MW =   62.4985205271756    
        VINYL-01  3.180669317531649E-02  ACETY-01   0.00000000000000      DICHL-01  5.852223789393524E-10
        OXYGE-01   0.00000000000000      HYDRO-01   0.00000000000000      WATER     1.027323565503302E-10
        NITROGEN   0.00000000000000      CARBONMO   0.00000000000000      METHANE    0.00000000000000    

 STREAM B2      
        SUBSTREAM MIXED     F =  3.695642800585534E-03  T =   285.605962801732      P =   213000.000000000    
                            H =  -30475099.4355826      V =   0.00000000000000      L =   1.00000000000000    
                            ENTROPY =  -2250.90122843581      DENSITY =   1002.85982423913      MW =   70.6524969189051    
        VINYL-01  2.869157415345665E-03  ACETY-01   0.00000000000000      DICHL-01  8.264853852398693E-04
        OXYGE-01   0.00000000000000      HYDRO-01   0.00000000000000      WATER     3.656038693964208E-30
        NITROGEN   0.00000000000000      CARBONMO   0.00000000000000      METHANE    0.00000000000000    


*** INPUT SPECIFICATION MESSAGES ***

 FLOWSHEET    IS GENERATED BECAUSE OF OTHER CHANGES 04/17/2025   21:45:57:99 
 FLOWSHEET
     BLOCK RADFRAC1 IN=FEED OUT=D1 B1
     BLOCK RADFRAC2 IN=B1 OUT=D2 B2

 CHANGES WERE MADE TO BLOCK        RADFRAC1 04/17/2025   21:45:57:99 
 BLOCK RADFRAC1 RADFRAC
     SUBOBJECTS INTERNALS = CS-1 CS-2
     PARAM NSTAGE=30 ALGORITHM=STANDARD HYDRAULIC=NO MAXOL=25  &
         DAMPING=NONE
     PARAM2 STATIC-DP=YES OLD-SULZER=NO
     COL-CONFIG CONDENSER=TOTAL CA-CONFIG=INT-1
     FEEDS FEED 11
     PRODUCTS B1 30 L / D1 1 L
     P-SPEC 1 525. <kPa>
     COL-SPECS D:F=0.47562656554 MOLE-RR=0.95038714575
     REPORT NOHYDRAULIC
     INTERNALS CS-1 STAGE1=2 STAGE2=5 P-UPDATE=NO TRAYTYPE=SIEVE  &
         NPASS=1 SYSFAC=1.000000000 OVER-DESIGN=1.000000000  &
         WEIR-HT=50.80000000 <mm> DC-CLEAR=38.10000000 <mm>  &
         DC-WTOP-SIDE=115.8776609 <mm> DC-WBOT-SIDE=115.8776609 <mm>  &
         HOLE-DIAM=12.70000000 <mm> HOLE-AREA=.1000000000  &
         FLOOD-METH=GLITSCH6 DECK-THICK=0.134 <IN>  &
         PCT-FLOOD-FA=80.00000000 AER-PARAM-M=1.000000000  &
         MAX-DC-LOAD=GLITSCH MAX-ACC-DP=.0250000000  &
         MAX-PCT-DCB=100.0000000 MAX-PCT-ENT=10.00000000  &
         MIN-WEIR-LD=4.470981863 MAX-WEIR-LD=117.3721131  &
         MIN-PCT-DCA=.1000000000
     TRAY-SIZE 1 2 5 SIEVE
     INTERNALS CS-2 STAGE1=6 STAGE2=29 P-UPDATE=NO  &
         TRAYTYPE=SIEVE NPASS=1 SYSFAC=1.000000000  &
         OVER-DESIGN=1.000000000 WEIR-HT=50.80000000 <mm>  &
         DC-CLEAR=38.10000000 <mm> DC-WTOP-SIDE=117.9690862 <mm>  &
         DC-WBOT-SIDE=117.9690862 <mm> HOLE-DIAM=12.70000000 <mm>  &
         HOLE-AREA=.1000000000 FLOOD-METH=GLITSCH6  &
         DECK-THICK=0.134 <IN> PCT-FLOOD-FA=80.00000000  &
         AER-PARAM-M=1.000000000 MAX-DC-LOAD=GLITSCH  &
         MAX-ACC-DP=.0250000000 MAX-PCT-DCB=100.0000000  &
         MAX-PCT-ENT=10.00000000 MIN-WEIR-LD=4.470981863  &
         MAX-WEIR-LD=117.3721131 MIN-PCT-DCA=.1000000000
     TRAY-SIZE 2 6 29 SIEVE
     UTILITIES COND-UTIL=REFRIG4 REB-UTIL=LP

 CHANGES WERE MADE TO BLOCK        RADFRAC2 04/17/2025   21:45:57:99 
 BLOCK RADFRAC2 RADFRAC
     SUBOBJECTS INTERNALS = CS-1 CS-2
     PARAM NSTAGE=37 ALGORITHM=STANDARD HYDRAULIC=NO MAXOL=25  &
         DAMPING=NONE
     PARAM2 STATIC-DP=YES OLD-SULZER=NO
     COL-CONFIG CONDENSER=TOTAL CA-CONFIG=INT-1
     FEEDS B1 15
     PRODUCTS B2 37 L / D2 1 L
     P-SPEC 1 213. <kPa>
     COL-SPECS D:F=0.90719530812 MOLE-RR=0.96864323351
     REPORT NOHYDRAULIC
     INTERNALS CS-1 STAGE1=2 STAGE2=26 P-UPDATE=NO  &
         TRAYTYPE=SIEVE NPASS=1 SYSFAC=1.000000000  &
         OVER-DESIGN=1.000000000 WEIR-HT=50.80000000 <mm>  &
         DC-CLEAR=38.10000000 <mm> DC-WTOP-SIDE=140.8855894 <mm>  &
         DC-WBOT-SIDE=140.8855894 <mm> HOLE-DIAM=12.70000000 <mm>  &
         HOLE-AREA=.1000000000 FLOOD-METH=GLITSCH6  &
         DECK-THICK=0.134 <IN> PCT-FLOOD-FA=80.00000000  &
         AER-PARAM-M=1.000000000 MAX-DC-LOAD=GLITSCH  &
         MAX-ACC-DP=.0250000000 MAX-PCT-DCB=100.0000000  &
         MAX-PCT-ENT=10.00000000 MIN-WEIR-LD=4.470981863  &
         MAX-WEIR-LD=117.3721131 MIN-PCT-DCA=.1000000000
     TRAY-SIZE 1 2 26 SIEVE
     INTERNALS CS-2 STAGE1=27 STAGE2=36 P-UPDATE=NO  &
         TRAYTYPE=SIEVE NPASS=1 SYSFAC=1.000000000  &
         OVER-DESIGN=1.000000000 WEIR-HT=50.80000000 <mm>  &
         DC-CLEAR=38.10000000 <mm> DC-WTOP-SIDE=136.2245780 <mm>  &
         DC-WBOT-SIDE=136.2245780 <mm> HOLE-DIAM=12.70000000 <mm>  &
         HOLE-AREA=.1000000000 FLOOD-METH=GLITSCH6  &
         DECK-THICK=0.134 <IN> PCT-FLOOD-FA=80.00000000  &
         AER-PARAM-M=1.000000000 MAX-DC-LOAD=GLITSCH  &
         MAX-ACC-DP=.0250000000 MAX-PCT-DCB=100.0000000  &
         MAX-PCT-ENT=10.00000000 MIN-WEIR-LD=4.470981863  &
         MAX-WEIR-LD=117.3721131 MIN-PCT-DCA=.1000000000
     TRAY-SIZE 2 27 36 SIEVE
     UTILITIES COND-UTIL=REFRIG1 REB-UTIL=LP

 PDF updated                                                                      TIME =     17.18
 THIS COPY OF ASPEN PLUS LICENSED TO JOHNS HOPKINS UNIVERSITY        
 
 


Calculations begin                                                              time     17.48


      UOS BLOCK RADFRAC1 MODEL: RADFRAC                                           TIME =     17.48

       Convergence iterations:
         OL   ML   IL     Err/Tol
          1    1   10     0.11998E+06
          2    1    8      14124.    
          3    1    6      6060.3    
          4    1    4      1997.7    
          5    1    4      531.71    
          6    1    4      318.79    
          7    1    5      161.88    
          8    1    4      46.773    
          9    1    5      35.792    
         10    1    4      23.205    
         11    1    3      10.001    
         12    1    3      3.6295    
         13    1    4      3.9388    
         14    1    3      2.0516    
         15    1    3      1.8265    
         16    1    3      1.1348    
         17    1    3     0.22573    

      UOS BLOCK RADFRAC2 MODEL: RADFRAC                                           TIME =     17.49

       Convergence iterations:
         OL   ML   IL     Err/Tol
          1    1    4      3.2392    
          2    1    2     0.90400E-01

      CHECKING PHASE EQUILIBRIUM RESULTS                                          TIME =     17.50

      CHECKING PHASE EQUILIBRIUM RESULTS                                          TIME =     17.50

 STREAM D1      
        SUBSTREAM MIXED     F =  3.145927544156901E-02  T =   128.903277333382      P =   525000.000000000    
                            H =  -23098870.9306623      V =   0.00000000000000      L =   1.00000000000000    
                            ENTROPY =  -3233.29778805265      DENSITY =   1106.97825123617      MW =   51.1542073179156    
        VINYL-01  2.038035592817953E-02  ACETY-01  1.078127730548682E-03  DICHL-01  5.175108250021538E-14
        OXYGE-01  3.836282722197764E-04  HYDRO-01  4.510939338860129E-03  WATER     1.719708772961553E-04
        NITROGEN  3.651082866643388E-03  CARBONMO  3.968568333308031E-04  METHANE   8.863135944387933E-04

 STREAM B1      
        SUBSTREAM MIXED     F =  3.468353011398669E-02  T =   308.694595992875      P =   525000.000000000    
                            H =   5894778.77892464      V =   0.00000000000000      L =   1.00000000000000    
                            ENTROPY =  -1925.68124373217      DENSITY =   892.403879518136      MW =   63.3676672326360    
        VINYL-01  3.385674462744202E-02  ACETY-01  3.504944645710377E-22  DICHL-01  8.267850693974791E-04
        OXYGE-01  7.425988136964107E-47  HYDRO-01  2.654394545367671E-22  WATER     4.171471927013039E-10
        NITROGEN  8.647538628205321E-48  CARBONMO  4.164386547187467E-48  METHANE   9.745367134751794E-40


*** INPUT SPECIFICATION MESSAGES ***

 FLOWSHEET    IS GENERATED BECAUSE OF OTHER CHANGES 04/17/2025   21:45:59:99 
 FLOWSHEET
     BLOCK RADFRAC1 IN=FEED OUT=D1 B1
     BLOCK RADFRAC2 IN=B1 OUT=D2 B2

 CHANGES WERE MADE TO BLOCK        RADFRAC1 04/17/2025   21:45:59:99 
 BLOCK RADFRAC1 RADFRAC
     SUBOBJECTS INTERNALS = CS-1 CS-2
     PARAM NSTAGE=32 ALGORITHM=STANDARD HYDRAULIC=NO MAXOL=25  &
         DAMPING=NONE
     PARAM2 STATIC-DP=YES OLD-SULZER=NO
     COL-CONFIG CONDENSER=TOTAL CA-CONFIG=INT-1
     FEEDS FEED 2
     PRODUCTS B1 32 L / D1 1 L
     P-SPEC 1 525. <kPa>
     COL-SPECS D:F=0.47497872786 MOLE-RR=0.25222427194
     REPORT NOHYDRAULIC
     INTERNALS CS-1 STAGE1=2 STAGE2=5 P-UPDATE=NO TRAYTYPE=SIEVE  &
         NPASS=1 SYSFAC=1.000000000 OVER-DESIGN=1.000000000  &
         WEIR-HT=50.80000000 <mm> DC-CLEAR=38.10000000 <mm>  &
         DC-WTOP-SIDE=129.0706000 <mm> DC-WBOT-SIDE=129.0706000 <mm>  &
         HOLE-DIAM=12.70000000 <mm> HOLE-AREA=.1000000000  &
         FLOOD-METH=GLITSCH6 DECK-THICK=0.134 <IN>  &
         PCT-FLOOD-FA=80.00000000 AER-PARAM-M=1.000000000  &
         MAX-DC-LOAD=GLITSCH MAX-ACC-DP=.0250000000  &
         MAX-PCT-DCB=100.0000000 MAX-PCT-ENT=10.00000000  &
         MIN-WEIR-LD=4.470981863 MAX-WEIR-LD=117.3721131  &
         MIN-PCT-DCA=.1000000000
     TRAY-SIZE 1 2 5 SIEVE
     INTERNALS CS-2 STAGE1=6 STAGE2=31 P-UPDATE=NO  &
         TRAYTYPE=SIEVE NPASS=1 SYSFAC=1.000000000  &
         OVER-DESIGN=1.000000000 WEIR-HT=50.80000000 <mm>  &
         DC-CLEAR=38.10000000 <mm> DC-WTOP-SIDE=129.0751944 <mm>  &
         DC-WBOT-SIDE=129.0751944 <mm> HOLE-DIAM=12.70000000 <mm>  &
         HOLE-AREA=.1000000000 FLOOD-METH=GLITSCH6  &
         DECK-THICK=0.134 <IN> PCT-FLOOD-FA=80.00000000  &
[...]
         MAX-DC-LOAD=GLITSCH MAX-ACC-DP=.0250000000  &
         MAX-PCT-DCB=100.0000000 MAX-PCT-ENT=10.00000000  &
         MIN-WEIR-LD=4.470981863 MAX-WEIR-LD=117.3721131  &
         MIN-PCT-DCA=.1000000000
     TRAY-SIZE 1 2 5 SIEVE
     INTERNALS CS-2 STAGE1=6 STAGE2=30 P-UPDATE=NO  &
         TRAYTYPE=SIEVE NPASS=1 SYSFAC=1.000000000  &
         OVER-DESIGN=1.000000000 WEIR-HT=50.80000000 <mm>  &
         DC-CLEAR=38.10000000 <mm> DC-WTOP-SIDE=137.0661899 <mm>  &
         DC-WBOT-SIDE=137.0661899 <mm> HOLE-DIAM=12.70000000 <mm>  &
         HOLE-AREA=.1000000000 FLOOD-METH=GLITSCH6  &
         DECK-THICK=0.134 <IN> PCT-FLOOD-FA=80.00000000  &
         AER-PARAM-M=1.000000000 MAX-DC-LOAD=GLITSCH  &
         MAX-ACC-DP=.0250000000 MAX-PCT-DCB=100.0000000  &
         MAX-PCT-ENT=10.00000000 MIN-WEIR-LD=4.470981863  &
         MAX-WEIR-LD=117.3721131 MIN-PCT-DCA=.1000000000
     TRAY-SIZE 2 6 30 SIEVE
     UTILITIES COND-UTIL=REFRIG4 REB-UTIL=LP

 CHANGES WERE MADE TO BLOCK        RADFRAC2 04/17/2025   21:47:19:99 
 BLOCK RADFRAC2 RADFRAC
     SUBOBJECTS INTERNALS = CS-1 CS-2
     PARAM NSTAGE=37 ALGORITHM=STANDARD HYDRAULIC=NO MAXOL=25  &
         DAMPING=NONE
     PARAM2 STATIC-DP=YES OLD-SULZER=NO
     COL-CONFIG CONDENSER=TOTAL CA-CONFIG=INT-1
     FEEDS B1 6
     PRODUCTS B2 37 L / D2 1 L
     P-SPEC 1 213. <kPa>
     COL-SPECS D:F=0.90555502804 MOLE-RR=1.0607110897
     REPORT NOHYDRAULIC
     INTERNALS CS-1 STAGE1=2 STAGE2=26 P-UPDATE=NO  &
         TRAYTYPE=SIEVE NPASS=1 SYSFAC=1.000000000  &
         OVER-DESIGN=1.000000000 WEIR-HT=50.80000000 <mm>  &
         DC-CLEAR=38.10000000 <mm> DC-WTOP-SIDE=120.2609326 <mm>  &
         DC-WBOT-SIDE=120.2609326 <mm> HOLE-DIAM=12.70000000 <mm>  &
         HOLE-AREA=.1000000000 FLOOD-METH=GLITSCH6  &
         DECK-THICK=0.134 <IN> PCT-FLOOD-FA=80.00000000  &
         AER-PARAM-M=1.000000000 MAX-DC-LOAD=GLITSCH  &
         MAX-ACC-DP=.0250000000 MAX-PCT-DCB=100.0000000  &
         MAX-PCT-ENT=10.00000000 MIN-WEIR-LD=4.470981863  &
         MAX-WEIR-LD=117.3721131 MIN-PCT-DCA=.1000000000
     TRAY-SIZE 1 2 26 SIEVE
     INTERNALS CS-2 STAGE1=27 STAGE2=36 P-UPDATE=NO  &
         TRAYTYPE=SIEVE NPASS=1 SYSFAC=1.000000000  &
         OVER-DESIGN=1.000000000 WEIR-HT=50.80000000 <mm>  &
         DC-CLEAR=38.10000000 <mm> DC-WTOP-SIDE=114.5245829 <mm>  &
         DC-WBOT-SIDE=114.5245829 <mm> HOLE-DIAM=12.70000000 <mm>  &
         HOLE-AREA=.1000000000 FLOOD-METH=GLITSCH6  &
         DECK-THICK=0.134 <IN> PCT-FLOOD-FA=80.00000000  &
         AER-PARAM-M=1.000000000 MAX-DC-LOAD=GLITSCH  &
         MAX-ACC-DP=.0250000000 MAX-PCT-DCB=100.0000000  &
         MAX-PCT-ENT=10.00000000 MIN-WEIR-LD=4.470981863  &
         MAX-WEIR-LD=117.3721131 MIN-PCT-DCA=.1000000000
     TRAY-SIZE 2 27 36 SIEVE
     UTILITIES COND-UTIL=REFRIG1 REB-UTIL=LP

 PDF updated                                                                      TIME =     98.68
 THIS COPY OF ASPEN PLUS LICENSED TO JOHNS HOPKINS UNIVERSITY        
 
 


Calculations begin                                                              time     98.94


      UOS BLOCK RADFRAC1 MODEL: RADFRAC                                           TIME =     98.94

       Convergence iterations:
         OL   ML   IL     Err/Tol
          1    1    3      1.5528    
          2    1    2     0.11240    

      UOS BLOCK RADFRAC2 MODEL: RADFRAC                                           TIME =     98.94

       Convergence iterations:
         OL   ML   IL     Err/Tol
          1    1    3      1.8941    
          2    1    2     0.87170E-02

      CHECKING PHASE EQUILIBRIUM RESULTS                                          TIME =     98.95

      CHECKING PHASE EQUILIBRIUM RESULTS                                          TIME =     98.95


*** INPUT SPECIFICATION MESSAGES ***

 FLOWSHEET    IS GENERATED BECAUSE OF OTHER CHANGES 04/17/2025   21:47:21:99 
 FLOWSHEET
     BLOCK RADFRAC1 IN=FEED OUT=D1 B1
     BLOCK RADFRAC2 IN=B1 OUT=D2 B2

 CHANGES WERE MADE TO BLOCK        RADFRAC1 04/17/2025   21:47:21:99 
 BLOCK RADFRAC1 RADFRAC
     SUBOBJECTS INTERNALS = CS-1 CS-2
     PARAM NSTAGE=32 ALGORITHM=STANDARD HYDRAULIC=NO MAXOL=25  &
         DAMPING=NONE
     PARAM2 STATIC-DP=YES OLD-SULZER=NO
     COL-CONFIG CONDENSER=TOTAL CA-CONFIG=INT-1
     FEEDS FEED 2
     PRODUCTS B1 32 L / D1 1 L
     P-SPEC 1 525. <kPa>
     COL-SPECS D:F=0.47498292691 MOLE-RR=0.25222427194
     REPORT NOHYDRAULIC
     INTERNALS CS-1 STAGE1=2 STAGE2=5 P-UPDATE=NO TRAYTYPE=SIEVE  &
         NPASS=1 SYSFAC=1.000000000 OVER-DESIGN=1.000000000  &
         WEIR-HT=50.80000000 <mm> DC-CLEAR=38.10000000 <mm>  &
         DC-WTOP-SIDE=138.5601693 <mm> DC-WBOT-SIDE=138.5601693 <mm>  &
         HOLE-DIAM=12.70000000 <mm> HOLE-AREA=.1000000000  &
         FLOOD-METH=GLITSCH6 DECK-THICK=0.134 <IN>  &
         PCT-FLOOD-FA=80.00000000 AER-PARAM-M=1.000000000  &
         MAX-DC-LOAD=GLITSCH MAX-ACC-DP=.0250000000  &
         MAX-PCT-DCB=100.0000000 MAX-PCT-ENT=10.00000000  &
         MIN-WEIR-LD=4.470981863 MAX-WEIR-LD=117.3721131  &
         MIN-PCT-DCA=.1000000000
     TRAY-SIZE 1 2 5 SIEVE
     INTERNALS CS-2 STAGE1=6 STAGE2=31 P-UPDATE=NO  &
         TRAYTYPE=SIEVE NPASS=1 SYSFAC=1.000000000  &
         OVER-DESIGN=1.000000000 WEIR-HT=50.80000000 <mm>  &
         DC-CLEAR=38.10000000 <mm> DC-WTOP-SIDE=135.9120469 <mm>  &
         DC-WBOT-SIDE=135.9120469 <mm> HOLE-DIAM=12.70000000 <mm>  &
         HOLE-AREA=.1000000000 FLOOD-METH=GLITSCH6  &
         DECK-THICK=0.134 <IN> PCT-FLOOD-FA=80.00000000  &
         AER-PARAM-M=1.000000000 MAX-DC-LOAD=GLITSCH  &
         MAX-ACC-DP=.0250000000 MAX-PCT-DCB=100.0000000  &
         MAX-PCT-ENT=10.00000000 MIN-WEIR-LD=4.470981863  &
         MAX-WEIR-LD=117.3721131 MIN-PCT-DCA=.1000000000
     TRAY-SIZE 2 6 31 SIEVE
     UTILITIES COND-UTIL=REFRIG4 REB-UTIL=LP

 CHANGES WERE MADE TO BLOCK        RADFRAC2 04/17/2025   21:47:21:99 
 BLOCK RADFRAC2 RADFRAC
     SUBOBJECTS INTERNALS = CS-1 CS-2
     PARAM NSTAGE=38 ALGORITHM=STANDARD HYDRAULIC=NO MAXOL=25  &
         DAMPING=NONE
     PARAM2 STATIC-DP=YES OLD-SULZER=NO
     COL-CONFIG CONDENSER=TOTAL CA-CONFIG=INT-1
     FEEDS B1 5
     PRODUCTS B2 38 L / D2 1 L
     P-SPEC 1 213. <kPa>
     COL-SPECS D:F=0.906867014 MOLE-RR=1.4576601635
     REPORT NOHYDRAULIC
     INTERNALS CS-1 STAGE1=2 STAGE2=26 P-UPDATE=NO  &
         TRAYTYPE=SIEVE NPASS=1 SYSFAC=1.000000000  &
         OVER-DESIGN=1.000000000 WEIR-HT=50.80000000 <mm>  &
         DC-CLEAR=38.10000000 <mm> DC-WTOP-SIDE=143.7780875 <mm>  &
         DC-WBOT-SIDE=143.7780875 <mm> HOLE-DIAM=12.70000000 <mm>  &
         HOLE-AREA=.1000000000 FLOOD-METH=GLITSCH6  &
         DECK-THICK=0.134 <IN> PCT-FLOOD-FA=80.00000000  &
         AER-PARAM-M=1.000000000 MAX-DC-LOAD=GLITSCH  &
         MAX-ACC-DP=.0250000000 MAX-PCT-DCB=100.0000000  &
         MAX-PCT-ENT=10.00000000 MIN-WEIR-LD=4.470981863  &
         MAX-WEIR-LD=117.3721131 MIN-PCT-DCA=.1000000000
     TRAY-SIZE 1 2 26 SIEVE
     INTERNALS CS-2 STAGE1=27 STAGE2=37 P-UPDATE=NO  &
         TRAYTYPE=SIEVE NPASS=1 SYSFAC=1.000000000  &
         OVER-DESIGN=1.000000000 WEIR-HT=50.80000000 <mm>  &
         DC-CLEAR=38.10000000 <mm> DC-WTOP-SIDE=139.2607338 <mm>  &
         DC-WBOT-SIDE=139.2607338 <mm> HOLE-DIAM=12.70000000 <mm>  &
         HOLE-AREA=.1000000000 FLOOD-METH=GLITSCH6  &
         DECK-THICK=0.134 <IN> PCT-FLOOD-FA=80.00000000  &
         AER-PARAM-M=1.000000000 MAX-DC-LOAD=GLITSCH  &
         MAX-ACC-DP=.0250000000 MAX-PCT-DCB=100.0000000  &
         MAX-PCT-ENT=10.00000000 MIN-WEIR-LD=4.470981863  &
         MAX-WEIR-LD=117.3721131 MIN-PCT-DCA=.1000000000
     TRAY-SIZE 2 27 37 SIEVE
     UTILITIES COND-UTIL=REFRIG1 REB-UTIL=LP

 PDF updated                                                                      TIME =    100.95
 THIS COPY OF ASPEN PLUS LICENSED TO JOHNS HOPKINS UNIVERSITY        
 
 


Calculations begin                                                              time    101.26


      UOS BLOCK RADFRAC1 MODEL: RADFRAC                                           TIME =    101.26

       Convergence iterations:
         OL   ML   IL     Err/Tol
          1    1    4      15.054    
          2    1    3      3.6456    
          3    1    3      2.2197    
          4    1    3      2.6371    
          5    1    4      14.181    
          6    1    4      35.958    
          7    1    3      7.3369    
          8    1    3      2.9550    
          9    1    3      1.0876    
         10    1    3     0.51475    

      UOS BLOCK RADFRAC2 MODEL: RADFRAC                                           TIME =    101.26

       Convergence iterations:
         OL   ML   IL     Err/Tol
          1    1    3     0.76513    

      CHECKING PHASE EQUILIBRIUM RESULTS                                          TIME =    101.27

      CHECKING PHASE EQUILIBRIUM RESULTS                                          TIME =    101.27


*** INPUT SPECIFICATION MESSAGES ***

 FLOWSHEET    IS GENERATED BECAUSE OF OTHER CHANGES 04/17/2025   21:47:23:99 
 FLOWSHEET
     BLOCK RADFRAC1 IN=FEED OUT=D1 B1
     BLOCK RADFRAC2 IN=B1 OUT=D2 B2

 CHANGES WERE MADE TO BLOCK        RADFRAC1 04/17/2025   21:47:23:99 
 BLOCK RADFRAC1 RADFRAC
     SUBOBJECTS INTERNALS = CS-1 CS-2
     PARAM NSTAGE=35 ALGORITHM=STANDARD HYDRAULIC=NO MAXOL=25  &
         DAMPING=NONE
     PARAM2 STATIC-DP=YES OLD-SULZER=NO
     COL-CONFIG CONDENSER=TOTAL CA-CONFIG=INT-1
     FEEDS FEED 3
     PRODUCTS B1 35 L / D1 1 L
     P-SPEC 1 525. <kPa>
     COL-SPECS D:F=0.47856240891 MOLE-RR=1.2186756016
     REPORT NOHYDRAULIC
     INTERNALS CS-1 STAGE1=2 STAGE2=5 P-UPDATE=NO TRAYTYPE=SIEVE  &
         NPASS=1 SYSFAC=1.000000000 OVER-DESIGN=1.000000000  &
         WEIR-HT=50.80000000 <mm> DC-CLEAR=38.10000000 <mm>  &
         DC-WTOP-SIDE=108.1887842 <mm> DC-WBOT-SIDE=108.1887842 <mm>  &
         HOLE-DIAM=12.70000000 <mm> HOLE-AREA=.1000000000  &
         FLOOD-METH=GLITSCH6 DECK-THICK=0.134 <IN>  &
         PCT-FLOOD-FA=80.00000000 AER-PARAM-M=1.000000000  &
         MAX-DC-LOAD=GLITSCH MAX-ACC-DP=.0250000000  &
         MAX-PCT-DCB=100.0000000 MAX-PCT-ENT=10.00000000  &
         MIN-WEIR-LD=4.470981863 MAX-WEIR-LD=117.3721131  &
         MIN-PCT-DCA=.1000000000
     TRAY-SIZE 1 2 5 SIEVE
     INTERNALS CS-2 STAGE1=6 STAGE2=34 P-UPDATE=NO  &
         TRAYTYPE=SIEVE NPASS=1 SYSFAC=1.000000000  &
         OVER-DESIGN=1.000000000 WEIR-HT=50.80000000 <mm>  &
         DC-CLEAR=38.10000000 <mm> DC-WTOP-SIDE=108.5791675 <mm>  &
         DC-WBOT-SIDE=108.5791675 <mm> HOLE-DIAM=12.70000000 <mm>  &
         HOLE-AREA=.1000000000 FLOOD-METH=GLITSCH6  &
         DECK-THICK=0.134 <IN> PCT-FLOOD-FA=80.00000000  &
         AER-PARAM-M=1.000000000 MAX-DC-LOAD=GLITSCH  &
         MAX-ACC-DP=.0250000000 MAX-PCT-DCB=100.0000000  &
         MAX-PCT-ENT=10.00000000 MIN-WEIR-LD=4.470981863  &
         MAX-WEIR-LD=117.3721131 MIN-PCT-DCA=.1000000000
     TRAY-SIZE 2 6 34 SIEVE
     UTILITIES COND-UTIL=REFRIG4 REB-UTIL=LP

 CHANGES WERE MADE TO BLOCK        RADFRAC2 04/17/2025   21:47:23:99 
 BLOCK RADFRAC2 RADFRAC
     SUBOBJECTS INTERNALS = CS-1 CS-2
     PARAM NSTAGE=37 ALGORITHM=STANDARD HYDRAULIC=NO MAXOL=25  &
         DAMPING=NONE
     PARAM2 STATIC-DP=YES OLD-SULZER=NO
     COL-CONFIG CONDENSER=TOTAL CA-CONFIG=INT-1
     FEEDS B1 6
     PRODUCTS B2 37 L / D2 1 L
     P-SPEC 1 213. <kPa>
     COL-SPECS D:F=0.89596034998 MOLE-RR=1.0661427742
     REPORT NOHYDRAULIC
     INTERNALS CS-1 STAGE1=2 STAGE2=26 P-UPDATE=NO  &
         TRAYTYPE=SIEVE NPASS=1 SYSFAC=1.000000000  &
         OVER-DESIGN=1.000000000 WEIR-HT=50.80000000 <mm>  &
         DC-CLEAR=38.10000000 <mm> DC-WTOP-SIDE=156.1527173 <mm>  &
         DC-WBOT-SIDE=156.1527173 <mm> HOLE-DIAM=12.70000000 <mm>  &
         HOLE-AREA=.1000000000 FLOOD-METH=GLITSCH6  &
         DECK-THICK=0.134 <IN> PCT-FLOOD-FA=80.00000000  &
         AER-PARAM-M=1.000000000 MAX-DC-LOAD=GLITSCH  &
         MAX-ACC-DP=.0250000000 MAX-PCT-DCB=100.0000000  &
         MAX-PCT-ENT=10.00000000 MIN-WEIR-LD=4.470981863  &
         MAX-WEIR-LD=117.3721131 MIN-PCT-DCA=.1000000000
     TRAY-SIZE 1 2 26 SIEVE
     INTERNALS CS-2 STAGE1=27 STAGE2=36 P-UPDATE=NO  &
         TRAYTYPE=SIEVE NPASS=1 SYSFAC=1.000000000  &
         OVER-DESIGN=1.000000000 WEIR-HT=50.80000000 <mm>  &
         DC-CLEAR=38.10000000 <mm> DC-WTOP-SIDE=152.2679968 <mm>  &
         DC-WBOT-SIDE=152.2679968 <mm> HOLE-DIAM=12.70000000 <mm>  &
         HOLE-AREA=.1000000000 FLOOD-METH=GLITSCH6  &
         DECK-THICK=0.134 <IN> PCT-FLOOD-FA=80.00000000  &
         AER-PARAM-M=1.000000000 MAX-DC-LOAD=GLITSCH  &
         MAX-ACC-DP=.0250000000 MAX-PCT-DCB=100.0000000  &
         MAX-PCT-ENT=10.00000000 MIN-WEIR-LD=4.470981863  &
         MAX-WEIR-LD=117.3721131 MIN-PCT-DCA=.1000000000
     TRAY-SIZE 2 27 36 SIEVE
     UTILITIES COND-UTIL=REFRIG1 REB-UTIL=LP

 PDF updated                                                                      TIME =    103.08
 THIS COPY OF ASPEN PLUS LICENSED TO JOHNS HOPKINS UNIVERSITY        
 
 


Calculations begin                                                              time    103.34


      UOS BLOCK RADFRAC1 MODEL: RADFRAC                                           TIME =    103.34

       Convergence iterations:
         OL   ML   IL     Err/Tol
          1    1   10      49088.    
          2    1    6      11188.    
          3    1    5      2379.3    
          4    1    4      103.63    
          5    1    4      63.597    
          6    1    4      34.915    
          7    1    3      16.016    
          8    1    4      4.6699    
          9    1    3      2.0539    
         10    1    3     0.76101    

      UOS BLOCK RADFRAC2 MODEL: RADFRAC                                           TIME =    103.35

       Convergence iterations:
         OL   ML   IL     Err/Tol
          1    1    4      1.8723    
          2    1    2     0.43800E-01

      CHECKING PHASE EQUILIBRIUM RESULTS                                          TIME =    103.36

      CHECKING PHASE EQUILIBRIUM RESULTS                                          TIME =    103.36


*** INPUT SPECIFICATION MESSAGES ***

 FLOWSHEET    IS GENERATED BECAUSE OF OTHER CHANGES 04/17/2025   21:47:25:99 
 FLOWSHEET
     BLOCK RADFRAC1 IN=FEED OUT=D1 B1
     BLOCK RADFRAC2 IN=B1 OUT=D2 B2

 CHANGES WERE MADE TO BLOCK        RADFRAC1 04/17/2025   21:47:25:99 
 BLOCK RADFRAC1 RADFRAC
     SUBOBJECTS INTERNALS = CS-1 CS-2
     PARAM NSTAGE=35 ALGORITHM=STANDARD HYDRAULIC=NO MAXOL=25  &
         DAMPING=NONE
     PARAM2 STATIC-DP=YES OLD-SULZER=NO
     COL-CONFIG CONDENSER=TOTAL CA-CONFIG=INT-1
     FEEDS FEED 8
     PRODUCTS B1 35 L / D1 1 L
     P-SPEC 1 525. <kPa>
     COL-SPECS D:F=0.47251833569 MOLE-RR=1.4998969901
     REPORT NOHYDRAULIC
     INTERNALS CS-1 STAGE1=2 STAGE2=5 P-UPDATE=NO TRAYTYPE=SIEVE  &
         NPASS=1 SYSFAC=1.000000000 OVER-DESIGN=1.000000000  &
         WEIR-HT=50.80000000 <mm> DC-CLEAR=38.10000000 <mm>  &
         DC-WTOP-SIDE=138.7273594 <mm> DC-WBOT-SIDE=138.7273594 <mm>  &
         HOLE-DIAM=12.70000000 <mm> HOLE-AREA=.1000000000  &
         FLOOD-METH=GLITSCH6 DECK-THICK=0.134 <IN>  &
         PCT-FLOOD-FA=80.00000000 AER-PARAM-M=1.000000000  &
         MAX-DC-LOAD=GLITSCH MAX-ACC-DP=.0250000000  &
         MAX-PCT-DCB=100.0000000 MAX-PCT-ENT=10.00000000  &
         MIN-WEIR-LD=4.470981863 MAX-WEIR-LD=117.3721131  &
         MIN-PCT-DCA=.1000000000
     TRAY-SIZE 1 2 5 SIEVE
     INTERNALS CS-2 STAGE1=6 STAGE2=34 P-UPDATE=NO  &
         TRAYTYPE=SIEVE NPASS=1 SYSFAC=1.000000000  &
         OVER-DESIGN=1.000000000 WEIR-HT=50.80000000 <mm>  &
         DC-CLEAR=38.10000000 <mm> DC-WTOP-SIDE=138.8193922 <mm>  &
         DC-WBOT-SIDE=138.8193922 <mm> HOLE-DIAM=12.70000000 <mm>  &
         HOLE-AREA=.1000000000 FLOOD-METH=GLITSCH6  &
         DECK-THICK=0.134 <IN> PCT-FLOOD-FA=80.00000000  &
         AER-PARAM-M=1.000000000 MAX-DC-LOAD=GLITSCH  &
         MAX-ACC-DP=.0250000000 MAX-PCT-DCB=100.0000000  &
         MAX-PCT-ENT=10.00000000 MIN-WEIR-LD=4.470981863  &
         MAX-WEIR-LD=117.3721131 MIN-PCT-DCA=.1000000000
     TRAY-SIZE 2 6 34 SIEVE
     UTILITIES COND-UTIL=REFRIG4 REB-UTIL=LP

 CHANGES WERE MADE TO BLOCK        RADFRAC2 04/17/2025   21:47:25:99 
 BLOCK RADFRAC2 RADFRAC
     SUBOBJECTS INTERNALS = CS-1 CS-2
     PARAM NSTAGE=38 ALGORITHM=STANDARD HYDRAULIC=NO MAXOL=25  &
         DAMPING=NONE
     PARAM2 STATIC-DP=YES OLD-SULZER=NO
     COL-CONFIG CONDENSER=TOTAL CA-CONFIG=INT-1
     FEEDS B1 7
     PRODUCTS B2 38 L / D2 1 L
     P-SPEC 1 213. <kPa>
     COL-SPECS D:F=0.905488919 MOLE-RR=1.0772758823
     REPORT NOHYDRAULIC
     INTERNALS CS-1 STAGE1=2 STAGE2=26 P-UPDATE=NO  &
         TRAYTYPE=SIEVE NPASS=1 SYSFAC=1.000000000  &
         OVER-DESIGN=1.000000000 WEIR-HT=50.80000000 <mm>  &
         DC-CLEAR=38.10000000 <mm> DC-WTOP-SIDE=141.2000000 <mm>  &
         DC-WBOT-SIDE=141.2000000 <mm> HOLE-DIAM=12.70000000 <mm>  &
         HOLE-AREA=.1000000000 FLOOD-METH=GLITSCH6  &
         DECK-THICK=0.134 <IN> PCT-FLOOD-FA=80.00000000  &
         AER-PARAM-M=1.000000000 MAX-DC-LOAD=GLITSCH  &
         MAX-ACC-DP=.0250000000 MAX-PCT-DCB=100.0000000  &
         MAX-PCT-ENT=10.00000000 MIN-WEIR-LD=4.470981863  &
         MAX-WEIR-LD=117.3721131 MIN-PCT-DCA=.1000000000
     TRAY-SIZE 1 2 26 SIEVE
     INTERNALS CS-2 STAGE1=27 STAGE2=37 P-UPDATE=NO  &
         TRAYTYPE=SIEVE NPASS=1 SYSFAC=1.000000000  &
         OVER-DESIGN=1.000000000 WEIR-HT=50.80000000 <mm>  &
         DC-CLEAR=38.10000000 <mm> DC-WTOP-SIDE=136.6823089 <mm>  &
         DC-WBOT-SIDE=136.6823089 <mm> HOLE-DIAM=12.70000000 <mm>  &
         HOLE-AREA=.1000000000 FLOOD-METH=GLITSCH6  &
         DECK-THICK=0.134 <IN> PCT-FLOOD-FA=80.00000000  &
         AER-PARAM-M=1.000000000 MAX-DC-LOAD=GLITSCH  &
         MAX-ACC-DP=.0250000000 MAX-PCT-DCB=100.0000000  &
         MAX-PCT-ENT=10.00000000 MIN-WEIR-LD=4.470981863  &
         MAX-WEIR-LD=117.3721131 MIN-PCT-DCA=.1000000000
     TRAY-SIZE 2 27 37 SIEVE
     UTILITIES COND-UTIL=REFRIG1 REB-UTIL=LP

 PDF updated                                                                      TIME =    105.30
 THIS COPY OF ASPEN PLUS LICENSED TO JOHNS HOPKINS UNIVERSITY        
 
 


Calculations begin                                                              time    105.54


      UOS BLOCK RADFRAC1 MODEL: RADFRAC                                           TIME =    105.54

       Convergence iterations:
         OL   ML   IL     Err/Tol
          1    1   10      52801.    
          2    1    5      17523.    
          3    1    3      4168.5    
          4    1    3      253.21    
          5    1    3      162.85    
          6    1    3      118.50    
          7    1    3      90.535    
          8    1    3      48.991    
          9    1    2      29.012    
         10    1    3      7.0123    
         11    1    3      10.319    
         12    1    2      6.5794    
         13    1    2      3.4385    
         14    1    2      1.3223    
         15    1    2      1.0393    
         16    1    2     0.56747    

      UOS BLOCK RADFRAC2 MODEL: RADFRAC                                           TIME =    105.55

       Convergence iterations:
         OL   ML   IL     Err/Tol
          1    1    4      1.9667    
          2    1    2     0.54140E-01

      CHECKING PHASE EQUILIBRIUM RESULTS                                          TIME =    105.56

      CHECKING PHASE EQUILIBRIUM RESULTS                                          TIME =    105.56
