
 + + + + + + + + + + + + + + + + + + + + + + + + + + + + + + + + + + + + + + + +
 + + + + + + + + + + + + + + + + + + + + + + + + + + + + + + + + + + + + + + + +
 + +                                                                         + +
 + +                      ASPEN PLUS CALCULATION HISTORY                     + +
 + +                                                                         + +
 + + + + + + + + + + + + + + + + + + + + + + + + + + + + + + + + + + + + + + + +
 + + + + + + + + + + + + + + + + + + + + + + + + + + + + + + + + + + + + + + + +

 ASPEN PLUS IS A TRADEMARK OF           HOTLINE:
 ASPEN TECHNOLOGY, INC.                 U.S.A. 888/996-7100
 781/221-6400                           EUROPE (44) 1189-226555

 PLATFORM: WIN-X64                                       APRIL 17, 2025      
 VERSION: 40.0   Build 359                               THURSDAY    
 INSTALLATION:                                           11:55:52 P.M.       

 THIS COPY OF ASPEN PLUS LICENSED TO JOHNS HOPKINS UNIVERSITY        


      ASPEN PLUS (R) IS A PROPRIETARY PRODUCT OF ASPEN TECHNOLOGY, INC.
      (ASPENTECH), AND MAY BE USED ONLY UNDER AGREEMENT WITH ASPENTECH.
      RESTRICTED RIGHTS LEGEND:  USE, REPRODUCTION, OR DISCLOSURE BY THE
      U.S. GOVERNMENT IS SUBJECT TO RESTRICTIONS SET FORTH IN 
      (i) FAR 52.227-14, Alt. III, (ii) FAR 52.227-19, (iii) DFARS 
      252.227-7013(c)(1)(ii), or (iv) THE ACCOMPANYING LICENSE AGREEMENT,
      AS APPLICABLE. FOR PURPOSES OF THE FAR, THIS SOFTWARE SHALL BE DEEMED
      TO BE "UNPUBLISHED" AND LICENSED WITH DISCLOSURE PROHIBITIONS.
      CONTRACTOR/SUBCONTRACTOR: ASPEN TECHNOLOGY, INC. 20 CROSBY DRIVE,
      BEDFORD, MA 01730.
 *** INPUT SUMMARY ***

 >>CURRENT RUN

   ORIGINAL RUN                           APRIL 17, 2025      
   11:55:52 P.M.                          THURSDAY    
   INPUT FILE: _5541vyk.inm
   RUN ID : _5541vyk
          1    ;
          2    ;Input file created by Aspen Plus Rel. 40.0 at 23:55:51 Thu Apr 17, 2025
          3    ;Directory C:\Users\wsangpa1\OneDrive - Johns Hopkins\ASPEN\Aspen\Vinyl_Distillation  Runid VINYL CHLORIDE DISTILLATION
          4    ;
          5
          6
          7    DYNAMICS
          8        DYNAMICS RESULTS=ON
          9
         10    IN-UNITS MET PRESSURE=bar TEMPERATURE=C DELTA-T=C PDROP=bar  &
         11            INVERSE-PRES='1/bar' SHORT-LENGTH=mm
         12
         13    DEF-STREAMS CONVEN ALL
         14
         15    MODEL-OPTION
         16
         17    DATABANKS 'APV140 PURE40' / 'APV140 AQUEOUS' / 'APV140 SOLIDS' &
         18             / 'APV140 INORGANIC' / 'APESV140 AP-EOS' /  &
         19            'NISTV140 NIST-TRC' / 'APESV140 ACIDGAS' /  &
         20            'APESV140 BIOFEED' / 'APESV140 FERMENT' /  &
         21            'APESV140 FLARE' / 'APV140 ASPENPCD' / 'APV140 BIODIESEL' &
         22             / 'APV140 COMBUST' / 'APV140 ELECPURE' /  &
         23            'APV140 EOS-LIT' / 'APV140 ETHYLENE' / 'APV140 HYSYS' /  &
         24            'APV140 INITIATO' / 'APV140 NRTL-SAC' / 'APV140 PC-SAFT' &
         25             / 'APV140 POLYMER' / 'APV140 POLYPCSF' /  &
         26            'APV140 PURE25' / 'APV140 PURE26' / 'APV140 PURE27' /  &
         27            'APV140 PURE28' / 'APV140 PURE32' / 'APV140 PURE35' /  &
         28            'APV140 PURE36' / 'APV140 PURE37' / 'APV140 PURE38' /  &
         29            'APV140 PURE39' / 'APV140 SEGMENT' / 'FACTV140 FACTPCD'
         30
         31    PROP-SOURCES 'APV140 PURE40' / 'APV140 AQUEOUS' /  &
         32            'APV140 SOLIDS' / 'APV140 INORGANIC' / 'APESV140 AP-EOS' &
         33             / 'NISTV140 NIST-TRC' / 'APESV140 ACIDGAS' /  &
         34            'APESV140 BIOFEED' / 'APESV140 FERMENT' /  &
         35            'APESV140 FLARE' / 'APV140 ASPENPCD' / 'APV140 BIODIESEL' &
         36             / 'APV140 COMBUST' / 'APV140 ELECPURE' /  &
         37            'APV140 EOS-LIT' / 'APV140 ETHYLENE' / 'APV140 HYSYS' /  &
         38            'APV140 INITIATO' / 'APV140 NRTL-SAC' / 'APV140 PC-SAFT' &
         39             / 'APV140 POLYMER' / 'APV140 POLYPCSF' /  &
         40            'APV140 PURE25' / 'APV140 PURE26' / 'APV140 PURE27' /  &
         41            'APV140 PURE28' / 'APV140 PURE32' / 'APV140 PURE35' /  &
         42            'APV140 PURE36' / 'APV140 PURE37' / 'APV140 PURE38' /  &
         43            'APV140 PURE39' / 'APV140 SEGMENT' / 'FACTV140 FACTPCD'
         44
         45    COMPONENTS
         46        VINYL-01 C2H3CL /
         47        ACETY-01 C2H2 /
         48        DICHL-01 C2H4CL2-1 /
         49        OXYGE-01 O2 /
         50        HYDRO-01 HCL /
         51        WATER H2O /
         52        NITROGEN N2 /
         53        CARBONMO CO /
         54        METHANE CH4
         55
         56    SOLVE
         57        RUN-MODE MODE=SIM
         58
         59    FLOWSHEET
         60        BLOCK RADFRAC1 IN=FEED OUT=D1 B1
         61        BLOCK RADFRAC2 IN=B1 OUT=D2 B2
         62
         63    PROPERTIES NRTL
         64
         65    PROP-DATA PCES-1
         66        IN-UNITS MET PRESSURE=bar TEMPERATURE=C DELTA-T=C PDROP=bar  &
         67            INVERSE-PRES='1/bar' SHORT-LENGTH=mm
         68        PROP-LIST DHVLB / VB / RKTZRA / VLSTD
         69        PVAL DICHL-01 6750.889295 / 88.65938200 / .2692624250 /  &
         70            83.75050270
         71
         72    PROP-DATA DHVLWT-1
         73        IN-UNITS MET PRESSURE=bar TEMPERATURE=C DELTA-T=C PDROP=bar  &
         74            INVERSE-PRES='1/bar' SHORT-LENGTH=mm
         75        PROP-LIST DHVLWT
         76        PVAL DICHL-01 6750.889295 57.20700000 .3800000000 0.0  &
         77            -141.0072000
         78
         79    PROP-DATA KLDIP-1
         80        IN-UNITS MET PRESSURE=bar TEMPERATURE=C DELTA-T=C PDROP=bar  &
         81            INVERSE-PRES='1/bar' SHORT-LENGTH=mm
         82        PROP-LIST KLDIP
         83        PVAL DICHL-01 .1017396118 6.34424108E-5 -4.1249461E-6  &
         84            2.17593050E-8 -4.501867E-11 57.20700000 243.5904000
         85
         86    PROP-DATA MULAND-1
         87        IN-UNITS MET PRESSURE=bar TEMPERATURE=C DELTA-T=C PDROP=bar  &
         88            INVERSE-PRES='1/bar' SHORT-LENGTH=mm
         89        PROP-LIST MULAND
         90        PVAL DICHL-01 80.92147478 -3642.542350 -12.26059350  &
         91            57.20700000 243.5904000
         92
         93    PROP-DATA SIGDIP-1
         94        IN-UNITS MET PRESSURE=bar TEMPERATURE=C DELTA-T=C PDROP=bar  &
         95            INVERSE-PRES='1/bar' SHORT-LENGTH=mm
         96        PROP-LIST SIGDIP
         97        PVAL DICHL-01 68.72045330 1.222222220 -1.348626E-10  &
         98            1.4957495E-10 -6.024811E-11 57.20700000 238.3708000
         99
        100    PROP-DATA NRTL-1
        101        IN-UNITS MET PRESSURE=bar TEMPERATURE=C DELTA-T=C PDROP=bar  &
        102            INVERSE-PRES='1/bar' SHORT-LENGTH=mm
        103        PROP-LIST NRTL
        104        BPVAL VINYL-01 HYDRO-01 .3421000000 -119.7519000 .3000000000  &
        105            0.0 0.0 0.0 -80.70000000 -80.70000000
        106        BPVAL HYDRO-01 VINYL-01 .1251000000 13.81580000 .3000000000  &
        107            0.0 0.0 0.0 -80.70000000 -80.70000000
        108        BPVAL VINYL-01 WATER -7.166300000 3581.032000 .3000000000  &
        109            0.0 0.0 0.0 15.00000000 92.00000000
        110        BPVAL WATER VINYL-01 4.137300000 253.3814000 .3000000000  &
        111            0.0 0.0 0.0 15.00000000 92.00000000
        112        BPVAL DICHL-01 WATER 161.6302000 -4790.826200 .2000000000  &
        113            0.0 -24.93690000 0.0 0.0 50.00000000
        114        BPVAL WATER DICHL-01 128.7456000 -6025.360400 .2000000000  &
        115            0.0 -18.11790000 0.0 0.0 50.00000000
        116
        117    STREAM FEED
        118        SUBSTREAM MIXED TEMP=15.0227 PRES=540. <kPa>  &
        119            MOLE-FLOW=238.1141
        120        MOLE-FRAC VINYL-01 0.82 / ACETY-01 0.0163 / DICHL-01  &
        121            0.0125 / OXYGE-01 0.0058 / HYDRO-01 0.0682 / WATER  &
        122            0.0026 / NITROGEN 0.0552 / CARBONMO 0.006 / METHANE  &
        123            0.0134
        124
        125    BLOCK RADFRAC1 RADFRAC
        126        SUBOBJECTS INTERNALS = CS-1 CS-2
        127        PARAM NSTAGE=34 ALGORITHM=STANDARD HYDRAULIC=NO MAXOL=25  &
        128            DAMPING=NONE
        129        PARAM2 STATIC-DP=YES OLD-SULZER=NO
        130        COL-CONFIG CONDENSER=TOTAL CA-CONFIG=INT-1
        131        FEEDS FEED 3
        132        PRODUCTS B1 34 L / D1 1 L
        133        P-SPEC 1 525. <kPa>
        134        COL-SPECS D:F=0.47718604304 MOLE-RR=0.6171160583
        135        REPORT NOHYDRAULIC
        136        INTERNALS CS-1 STAGE1=2 STAGE2=5 P-UPDATE=NO TRAYTYPE=SIEVE  &
        137            NPASS=1 SYSFAC=1.000000000 OVER-DESIGN=1.000000000  &
        138            WEIR-HT=50.80000000 <mm> DC-CLEAR=38.10000000 <mm>  &
        139            DC-WTOP-SIDE=141.1844920 <mm> DC-WBOT-SIDE=141.1844920 <mm>  &
        140            HOLE-DIAM=12.70000000 <mm> HOLE-AREA=.1000000000  &
        141            FLOOD-METH=GLITSCH6 DECK-THICK=0.134 <IN>  &
        142            PCT-FLOOD-FA=80.00000000 AER-PARAM-M=1.000000000  &
        143            MAX-DC-LOAD=GLITSCH MAX-ACC-DP=.0250000000  &
        144            MAX-PCT-DCB=100.0000000 MAX-PCT-ENT=10.00000000  &
        145            MIN-WEIR-LD=4.470981863 MAX-WEIR-LD=117.3721131  &
        146            MIN-PCT-DCA=.1000000000
        147        TRAY-SIZE 1 2 5 SIEVE
        148        INTERNALS CS-2 STAGE1=6 STAGE2=33 P-UPDATE=NO  &
        149            TRAYTYPE=SIEVE NPASS=1 SYSFAC=1.000000000  &
        150            OVER-DESIGN=1.000000000 WEIR-HT=50.80000000 <mm>  &
        151            DC-CLEAR=38.10000000 <mm> DC-WTOP-SIDE=138.4000000 <mm>  &
        152            DC-WBOT-SIDE=138.4000000 <mm> HOLE-DIAM=12.70000000 <mm>  &
        153            HOLE-AREA=.1000000000 FLOOD-METH=GLITSCH6  &
        154            DECK-THICK=0.134 <IN> PCT-FLOOD-FA=80.00000000  &
        155            AER-PARAM-M=1.000000000 MAX-DC-LOAD=GLITSCH  &
        156            MAX-ACC-DP=.0250000000 MAX-PCT-DCB=100.0000000  &
        157            MAX-PCT-ENT=10.00000000 MIN-WEIR-LD=4.470981863  &
        158            MAX-WEIR-LD=117.3721131 MIN-PCT-DCA=.1000000000
        159        TRAY-SIZE 2 6 33 SIEVE
        160        UTILITIES COND-UTIL=REFRIG4 REB-UTIL=LP
        161
        162    BLOCK RADFRAC2 RADFRAC
        163        SUBOBJECTS INTERNALS = CS-1 CS-2
        164        PARAM NSTAGE=37 ALGORITHM=STANDARD HYDRAULIC=NO MAXOL=25  &
        165            DAMPING=NONE
        166        PARAM2 STATIC-DP=YES OLD-SULZER=NO
        167        COL-CONFIG CONDENSER=TOTAL CA-CONFIG=INT-1
        168        FEEDS B1 29
        169        PRODUCTS B2 37 L / D2 1 L
        170        P-SPEC 1 213. <kPa>
        171        COL-SPECS D:F=0.8907384113 MOLE-RR=0.37925447208
        172        REPORT NOHYDRAULIC
        173        INTERNALS CS-1 STAGE1=2 STAGE2=26 P-UPDATE=NO  &
        174            TRAYTYPE=SIEVE NPASS=1 SYSFAC=1.000000000  &
        175            OVER-DESIGN=1.000000000 WEIR-HT=50.80000000 <mm>  &
        176            DC-CLEAR=38.10000000 <mm> DC-WTOP-SIDE=131.3579200 <mm>  &
        177            DC-WBOT-SIDE=131.3579200 <mm> HOLE-DIAM=12.70000000 <mm>  &
        178            HOLE-AREA=.1000000000 FLOOD-METH=GLITSCH6  &
        179            DECK-THICK=0.134 <IN> PCT-FLOOD-FA=80.00000000  &
        180            AER-PARAM-M=1.000000000 MAX-DC-LOAD=GLITSCH  &
        181            MAX-ACC-DP=.0250000000 MAX-PCT-DCB=100.0000000  &
        182            MAX-PCT-ENT=10.00000000 MIN-WEIR-LD=4.470981863  &
        183            MAX-WEIR-LD=117.3721131 MIN-PCT-DCA=.1000000000
        184        TRAY-SIZE 1 2 26 SIEVE
        185        INTERNALS CS-2 STAGE1=27 STAGE2=36 P-UPDATE=NO  &
        186            TRAYTYPE=SIEVE NPASS=1 SYSFAC=1.000000000  &
        187            OVER-DESIGN=1.000000000 WEIR-HT=50.80000000 <mm>  &
        188            DC-CLEAR=38.10000000 <mm> DC-WTOP-SIDE=126.2597047 <mm>  &
        189            DC-WBOT-SIDE=126.2597047 <mm> HOLE-DIAM=12.70000000 <mm>  &
        190            HOLE-AREA=.1000000000 FLOOD-METH=GLITSCH6  &
        191            DECK-THICK=0.134 <IN> PCT-FLOOD-FA=80.00000000  &
        192            AER-PARAM-M=1.000000000 MAX-DC-LOAD=GLITSCH  &
        193            MAX-ACC-DP=.0250000000 MAX-PCT-DCB=100.0000000  &
        194            MAX-PCT-ENT=10.00000000 MIN-WEIR-LD=4.470981863  &
        195            MAX-WEIR-LD=117.3721131 MIN-PCT-DCA=.1000000000
        196        TRAY-SIZE 2 27 36 SIEVE
        197        UTILITIES COND-UTIL=REFRIG1 REB-UTIL=LP
        198
        199    UTILITY HP GENERAL
        200        DESCRIPTION  &
        201            'High Pressure Steam, Inlet Temp=250 C, Outlet Temp=249 C, Pres=572 psia'
        202        COST ENERGY-PRICE=2.5E-06 <$/kJ>
        203        PARAM UTILITY-TYPE=STEAM TIN=250. TOUT=249. VFRAC=1.  &
        204            VFR-OUT=0. CALOPT=FLASH MIN-TAPP=10. CALCCO2=YES  &
        205            FACTORSOURCE="US-Title40-Part98" FUELSOURCE="Natural_gas"  &
        206            CO2FACTOR=2.10554172E-7 EFFICIENCY=0.85  &
        207            HTC=0.0216 <GJ/hr-sqm-C>
        208
        209    UTILITY LP GENERAL
        210        DESCRIPTION  &
        211            'Low Pressure Steam, Inlet Temp=125 C, Outlet Temp=124 C'
        212        COST ENERGY-PRICE=1.9E-06 <$/kJ>
        213        PARAM UTILITY-TYPE=STEAM TIN=125. TOUT=124. VFRAC=1.  &
        214            VFR-OUT=0. CALOPT=FLASH MIN-TAPP=10. CALCCO2=YES  &
        215            FACTORSOURCE="US-Title40-Part98" FUELSOURCE="Natural_gas"  &
        216            CO2FACTOR=2.10554172E-7 EFFICIENCY=0.85  &
        217            HTC=0.0216 <GJ/hr-sqm-C>
        218
        219    UTILITY MP GENERAL
        220        DESCRIPTION  &
        221            'Medium Pressure Steam, Inlet Temp=175 C, Outlet Temp=174 C, Pres=127 psia'
        222        COST ENERGY-PRICE=2.2E-06 <$/kJ>
        223        PARAM UTILITY-TYPE=STEAM TIN=175. TOUT=174. VFRAC=1.  &
        224            VFR-OUT=0. CALOPT=FLASH MIN-TAPP=10. CALCCO2=YES  &
        225            FACTORSOURCE="US-Title40-Part98" FUELSOURCE="Natural_gas"  &
        226            CO2FACTOR=2.10554172E-7 EFFICIENCY=0.85  &
        227            HTC=0.0216 <GJ/hr-sqm-C>
        228
        229    UTILITY REFRIG1 GENERAL
        230        DESCRIPTION  &
        231            'Refrigerant 1, Inlet Temp=-25 C, Outlet Temp=-24 C'
        232        COST ENERGY-PRICE=2.74E-06 <$/kJ>
        233        PARAM UTILITY-TYPE=REFRIGERATIO COOLING-VALU=-4. <kJ/kg>  &
        234            TIN=-25. TOUT=-24. MIN-TAPP=3. CALCCO2=YES FACTORSOURCE= &
        235            "US-Title40-Part98" FUELSOURCE="Natural_gas"  &
        236            CO2FACTOR=2.10554172E-7 EFFICIENCY=1.  &
        237            HTC=0.00468 <GJ/hr-sqm-C>
        238
        239    UTILITY REFRIG4 GENERAL
        240        DESCRIPTION  &
        241            'Very Low Temperature, Inlet Temp=-270 C, Outlet Temp=-269 C'
        242        COST ENERGY-PRICE=8.9E-06 <$/kJ>
        243        PARAM UTILITY-TYPE=REFRIGERATIO COOLING-VALU=-1.341 <kJ/kg>  &
        244            TIN=-270. TOUT=-269. MIN-TAPP=2. CALCCO2=YES  &
        245            FACTORSOURCE="US-Title40-Part98" FUELSOURCE="Natural_gas"  &
        246            CO2FACTOR=2.10554172E-7 EFFICIENCY=1.  &
        247            HTC=0.00468 <GJ/hr-sqm-C>
        248
        249    UTILITY WATER GENERAL
        250        DESCRIPTION 'Cooling Water, Inlet Temp=20 C, Outlet Temp=25 C'
        251        COST ENERGY-PRICE=2.12E-07 <$/kJ>
        252        PARAM UTILITY-TYPE=WATER PRES=1. <atm> PRES-OUT=1. <atm>  &
        253            TIN=20. TOUT=25. CALOPT=FLASH MIN-TAPP=5.  &
        254            HTC=0.0135 <GJ/hr-sqm-C>
        255
        256    EO-CONV-OPTI
        257
        258    STREAM-REPOR MOLEFLOW
        259
        260    PROPERTY-REP PCES NOPROP-DATA NODFMS
        261    ;
        262    ;
        263    ;
        264    ;
        265    ;
 *** INPUT TRANSLATOR MESSAGES ***

  *** THIS RUN USES THE PROPERTIES ENTERPRISE DATABASE ***
      SQLLOCALDB.APESV140 : (DATAVERSION - 40.0.0.13)                         
      SQLLOCALDB.APV140 : (DATAVERSION - 40.0.0.13)                           
      SQLLOCALDB.FACTV140 : (DATAVERSION - 40.0.0.12)                         
      SQLLOCALDB.NISTV140 : (DATAVERSION - 40.0.0.12)                         
 
 

 PDF updated                                                                      TIME =      3.70

 *** CALCULATION TRACE ***


 *** FLOWSHEET ANALYSIS MESSAGES ***

 FLOWSHEET CONNECTIVITY BY STREAMS       

   STREAM     SOURCE     DEST           STREAM     SOURCE     DEST
   FEED       ----       RADFRAC1       D1         RADFRAC1   ----    
   B1         RADFRAC1   RADFRAC2       D2         RADFRAC2   ----    
   B2         RADFRAC2   ----                                         

 FLOWSHEET CONNECTIVITY BY BLOCKS        

   BLOCK        INLETS                         OUTLETS
   RADFRAC1     FEED                           D1 B1                       
   RADFRAC2     B1                             D2 B2                       

      COMPUTATION ORDER FOR THE FLOWSHEET IS:
      REFRIG1 LP REFRIG4 RADFRAC1 RADFRAC2 HP MP WATER 

Calculations begin                                                              time      1.46


 SIMULATION CALCULATIONS BEGIN                                                    TIME =      1.46

      UTILITY BLOCK REFRIG1  MODEL: GENERAL                                       TIME =      1.46
      HEATING/COOLING VALUE    -4.000000D+03 J/KG

      UTILITY BLOCK LP       MODEL: GENERAL                                       TIME =      1.46
      KODE = 5  NTRIAL =   2  T = 398.1500  P =  232179.      V =  1.00000      Q =  0.00000    
      KODE = 5  NTRIAL =   2  T = 397.1500  P =  225121.      V =  0.00000      Q =  0.00000    
      HEATING/COOLING VALUE     2.191879D+06 J/KG

      UTILITY BLOCK REFRIG4  MODEL: GENERAL                                       TIME =      1.46
      HEATING/COOLING VALUE    -1.341000D+03 J/KG

      ENTHALPY CALCULATION FOR INLET STREAM FEED OF BLOCK RADFRAC1                TIME =      1.46
      KODE = 2  NTRIAL =   4  T = 288.1727  P =  540000.      V = 0.293865      Q =  0.00000    

      UOS BLOCK RADFRAC1 MODEL: RADFRAC                                           TIME =      1.46

       Convergence iterations:
         OL   ML   IL     Err/Tol
          1    1   10      43648.    
          2    1   10      5319.8    
          3    1    5      1979.5    
          4    1    4      490.94    
          5    1    4      213.51    
          6    1    3      65.322    
          7    1    3      15.130    
          8    1    4      7.6752    
          9    1    3      3.9847    
         10    1    3      1.2953    
         11    1    3     0.50280    

      UOS BLOCK RADFRAC2 MODEL: RADFRAC                                           TIME =      1.47

       Convergence iterations:
         OL   ML   IL     Err/Tol
          1    1    2     0.74729    
          2    1    3     0.21280E-01

      UTILITY BLOCK HP       MODEL: GENERAL                                       TIME =      1.47
      KODE = 5  NTRIAL =   5  T = 523.1500  P = 3.975372E+06  V =  1.00000      Q =  0.00000    
      KODE = 5  NTRIAL =   5  T = 522.1500  P = 3.908667E+06  V =  0.00000      Q =  0.00000    
      HEATING/COOLING VALUE     1.719324D+06 J/KG

      UTILITY BLOCK MP       MODEL: GENERAL                                       TIME =      1.47
      KODE = 5  NTRIAL =   3  T = 448.1500  P =  892540.      V =  1.00000      Q =  0.00000    
      KODE = 5  NTRIAL =   3  T = 447.1500  P =  871696.      V =  0.00000      Q =  0.00000    
      HEATING/COOLING VALUE     2.034752D+06 J/KG

      UTILITY BLOCK WATER    MODEL: GENERAL                                       TIME =      1.47
      KODE = 2  NTRIAL =   1  T = 293.1500  P =  101325.      V =  0.00000      Q =  0.00000    
      KODE = 3  NTRIAL =   4  T = 373.1407  P =  101325.      V =  0.00000      Q = 6.026911E+06
      KODE = 2  NTRIAL =   1  T = 298.1500  P =  101325.      V =  0.00000      Q =  0.00000    
      KODE = 3  NTRIAL =   4  T = 373.1407  P =  101325.      V =  0.00000      Q = 5.650828E+06
      HEATING/COOLING VALUE    -2.087576D+04 J/KG

      CHECKING PHASE EQUILIBRIUM RESULTS                                          TIME =      1.47

      CHECKING PHASE EQUILIBRIUM RESULTS                                          TIME =      1.47

 STREAM D1      
        SUBSTREAM MIXED     F =  3.156242365861978E-02  T =   128.978971473502      P =   525000.000000000    
                            H =  -23063501.5490291      V =   0.00000000000000      L =   1.00000000000000    
                            ENTROPY =  -3232.95633593195      DENSITY =   1107.07525995051      MW =   51.1939354163144    
        VINYL-01  2.048120574048725E-02  ACETY-01  1.078127730570437E-03  DICHL-01  2.298011131133368E-06
        OXYGE-01  3.836282722275176E-04  HYDRO-01  4.510939338951154E-03  WATER     1.719712707397319E-04
        NITROGEN  3.651082866717064E-03  CARBONMO  3.968568333388114E-04  METHANE   8.863135944566786E-04

 STREAM B1      
        SUBSTREAM MIXED     F =  3.458038189693592E-02  T =   308.694756226947      P =   525000.000000000    
                            H =   5894020.55843752      V =   0.00000000000000      L =   1.00000000000000    
                            ENTROPY =  -1925.68445627593      DENSITY =   892.405337258612      MW =   63.3678373155945    
        VINYL-01  3.375589481492588E-02  ACETY-01  5.606680342572080E-31  DICHL-01  8.244870583029589E-04
        OXYGE-01  1.669953836527527E-69  HYDRO-01  1.573910416067956E-31  WATER     2.370708625617352E-11
        NITROGEN  1.594358892753955E-71  CARBONMO  1.789007151611001E-71  METHANE   1.565384725958624E-58


*** INPUT SPECIFICATION MESSAGES ***

 FLOWSHEET    IS GENERATED BECAUSE OF OTHER CHANGES 04/17/2025   23:55:58:99 
 FLOWSHEET
     BLOCK RADFRAC1 IN=FEED OUT=D1 B1
     BLOCK RADFRAC2 IN=B1 OUT=D2 B2

 CHANGES WERE MADE TO BLOCK        RADFRAC1 04/17/2025   23:55:58:99 
 BLOCK RADFRAC1 RADFRAC
     SUBOBJECTS INTERNALS = CS-1 CS-2
     PARAM NSTAGE=32 ALGORITHM=STANDARD HYDRAULIC=NO MAXOL=25  &
         DAMPING=NONE
     PARAM2 STATIC-DP=YES OLD-SULZER=NO
     COL-CONFIG CONDENSER=TOTAL CA-CONFIG=INT-1
     FEEDS FEED 22
     PRODUCTS B1 32 L / D1 1 L
     P-SPEC 1 525. <kPa>
     COL-SPECS D:F=0.46510823849 MOLE-RR=0.6118478321
     REPORT NOHYDRAULIC
     INTERNALS CS-1 STAGE1=2 STAGE2=5 P-UPDATE=NO TRAYTYPE=SIEVE  &
         NPASS=1 SYSFAC=1.000000000 OVER-DESIGN=1.000000000  &
         WEIR-HT=50.80000000 <mm> DC-CLEAR=38.10000000 <mm>  &
         DC-WTOP-SIDE=117.7019715 <mm> DC-WBOT-SIDE=117.7019715 <mm>  &
         HOLE-DIAM=12.70000000 <mm> HOLE-AREA=.1000000000  &
         FLOOD-METH=GLITSCH6 DECK-THICK=0.134 <IN>  &
         PCT-FLOOD-FA=80.00000000 AER-PARAM-M=1.000000000  &
         MAX-DC-LOAD=GLITSCH MAX-ACC-DP=.0250000000  &
         MAX-PCT-DCB=100.0000000 MAX-PCT-ENT=10.00000000  &
         MIN-WEIR-LD=4.470981863 MAX-WEIR-LD=117.3721131  &
         MIN-PCT-DCA=.1000000000
     TRAY-SIZE 1 2 5 SIEVE
     INTERNALS CS-2 STAGE1=6 STAGE2=31 P-UPDATE=NO  &
         TRAYTYPE=SIEVE NPASS=1 SYSFAC=1.000000000  &
         OVER-DESIGN=1.000000000 WEIR-HT=50.80000000 <mm>  &
         DC-CLEAR=38.10000000 <mm> DC-WTOP-SIDE=118.9812819 <mm>  &
         DC-WBOT-SIDE=118.9812819 <mm> HOLE-DIAM=12.70000000 <mm>  &
         HOLE-AREA=.1000000000 FLOOD-METH=GLITSCH6  &
         DECK-THICK=0.134 <IN> PCT-FLOOD-FA=80.00000000  &
         AER-PARAM-M=1.000000000 MAX-DC-LOAD=GLITSCH  &
         MAX-ACC-DP=.0250000000 MAX-PCT-DCB=100.0000000  &
         MAX-PCT-ENT=10.00000000 MIN-WEIR-LD=4.470981863  &
         MAX-WEIR-LD=117.3721131 MIN-PCT-DCA=.1000000000
     TRAY-SIZE 2 6 31 SIEVE
     UTILITIES COND-UTIL=REFRIG4 REB-UTIL=LP

 CHANGES WERE MADE TO BLOCK        RADFRAC2 04/17/2025   23:55:58:99 
 BLOCK RADFRAC2 RADFRAC
     SUBOBJECTS INTERNALS = CS-1 CS-2
     PARAM NSTAGE=37 ALGORITHM=STANDARD HYDRAULIC=NO MAXOL=25  &
         DAMPING=NONE
     PARAM2 STATIC-DP=YES OLD-SULZER=NO
     COL-CONFIG CONDENSER=TOTAL CA-CONFIG=INT-1
     FEEDS B1 16
     PRODUCTS B2 37 L / D2 1 L
     P-SPEC 1 213. <kPa>
     COL-SPECS D:F=0.9079571374 MOLE-RR=1.0059952902
     REPORT NOHYDRAULIC
     INTERNALS CS-1 STAGE1=2 STAGE2=26 P-UPDATE=NO  &
         TRAYTYPE=SIEVE NPASS=1 SYSFAC=1.000000000  &
         OVER-DESIGN=1.000000000 WEIR-HT=50.80000000 <mm>  &
         DC-CLEAR=38.10000000 <mm> DC-WTOP-SIDE=114.0984531 <mm>  &
         DC-WBOT-SIDE=114.0984531 <mm> HOLE-DIAM=12.70000000 <mm>  &
         HOLE-AREA=.1000000000 FLOOD-METH=GLITSCH6  &
         DECK-THICK=0.134 <IN> PCT-FLOOD-FA=80.00000000  &
         AER-PARAM-M=1.000000000 MAX-DC-LOAD=GLITSCH  &
         MAX-ACC-DP=.0250000000 MAX-PCT-DCB=100.0000000  &
         MAX-PCT-ENT=10.00000000 MIN-WEIR-LD=4.470981863  &
         MAX-WEIR-LD=117.3721131 MIN-PCT-DCA=.1000000000
     TRAY-SIZE 1 2 26 SIEVE
     INTERNALS CS-2 STAGE1=27 STAGE2=36 P-UPDATE=NO  &
         TRAYTYPE=SIEVE NPASS=1 SYSFAC=1.000000000  &
         OVER-DESIGN=1.000000000 WEIR-HT=50.80000000 <mm>  &
         DC-CLEAR=38.10000000 <mm> DC-WTOP-SIDE=114.0815179 <mm>  &
         DC-WBOT-SIDE=114.0815179 <mm> HOLE-DIAM=12.70000000 <mm>  &
         HOLE-AREA=.1000000000 FLOOD-METH=GLITSCH6  &
         DECK-THICK=0.134 <IN> PCT-FLOOD-FA=80.00000000  &
         AER-PARAM-M=1.000000000 MAX-DC-LOAD=GLITSCH  &
         MAX-ACC-DP=.0250000000 MAX-PCT-DCB=100.0000000  &
         MAX-PCT-ENT=10.00000000 MIN-WEIR-LD=4.470981863  &
         MAX-WEIR-LD=117.3721131 MIN-PCT-DCA=.1000000000
     TRAY-SIZE 2 27 36 SIEVE
     UTILITIES COND-UTIL=REFRIG1 REB-UTIL=LP

 PDF updated                                                                      TIME =      3.34
 THIS COPY OF ASPEN PLUS LICENSED TO JOHNS HOPKINS UNIVERSITY        
 
 


Calculations begin                                                              time      3.58


      UOS BLOCK RADFRAC1 MODEL: RADFRAC                                           TIME =      3.58

       Convergence iterations:
         OL   ML   IL     Err/Tol
          1    1   10     0.23550E+06
          2    1   10      11014.    
          3    1    7      3151.4    
          4    1    4      754.94    
          5    1    5      490.68    
          6    1    4      257.70    
          7    1    3      84.716    
          8    1    4      29.669    
          9    1    4      16.522    
         10    1    4      5.9405    
         11    1    3      1.9927    
         12    1    3      1.0929    
         13    1    3     0.35770    

      UOS BLOCK RADFRAC2 MODEL: RADFRAC                                           TIME =      3.59

       Convergence iterations:
         OL   ML   IL     Err/Tol
          1    1    4      3.3361    
          2    1    2     0.84414E-01

      CHECKING PHASE EQUILIBRIUM RESULTS                                          TIME =      3.59

      CHECKING PHASE EQUILIBRIUM RESULTS                                          TIME =      3.59

 STREAM D1      
        SUBSTREAM MIXED     F =  3.076356378073112E-02  T =   128.392758803849      P =   525000.000000000    
                            H =  -23422114.1221125      V =   0.00000000000000      L =   1.00000000000000    
                            ENTROPY =  -3235.01084750774      DENSITY =   1106.49883941098      MW =   50.8983807234825    
        VINYL-01  1.968514407074699E-02  ACETY-01  1.078127730361252E-03  DICHL-01  4.144246289431967E-23
        OXYGE-01  3.836282722153753E-04  HYDRO-01  4.510939338525755E-03  WATER     1.714710745253606E-04
        NITROGEN  3.651082866601502E-03  CARBONMO  3.968568333262503E-04  METHANE   8.863135944286260E-04

 STREAM B1      
        SUBSTREAM MIXED     F =  3.537924177482459E-02  T =   308.677667348291      P =   525000.000000000    
                            H =   5967649.54946632      V =   0.00000000000000      L =   1.00000000000000    
                            ENTROPY =  -1925.35909046390      DENSITY =   892.260333885903      MW =   63.3499475560301    
        VINYL-01  3.455195648499360E-02  ACETY-01  1.750615297482042E-13  DICHL-01  8.267850694572791E-04
        OXYGE-01  9.237802865390770E-28  HYDRO-01  2.826223966702284E-13  WATER     5.002199160311401E-07
        NITROGEN  7.013366095001277E-28  CARBONMO  1.791465033943392E-28  METHANE   1.560095527635668E-23


*** INPUT SPECIFICATION MESSAGES ***

 FLOWSHEET    IS GENERATED BECAUSE OF OTHER CHANGES 04/17/2025   23:56:00:99 
 FLOWSHEET
     BLOCK RADFRAC1 IN=FEED OUT=D1 B1
     BLOCK RADFRAC2 IN=B1 OUT=D2 B2

 CHANGES WERE MADE TO BLOCK        RADFRAC1 04/17/2025   23:56:00:99 
 BLOCK RADFRAC1 RADFRAC
     SUBOBJECTS INTERNALS = CS-1 CS-2
     PARAM NSTAGE=33 ALGORITHM=STANDARD HYDRAULIC=NO MAXOL=25  &
         DAMPING=NONE
     PARAM2 STATIC-DP=YES OLD-SULZER=NO
     COL-CONFIG CONDENSER=TOTAL CA-CONFIG=INT-1
     FEEDS FEED 26
     PRODUCTS B1 33 L / D1 1 L
     P-SPEC 1 525. <kPa>
     COL-SPECS D:F=0.47900525853 MOLE-RR=1.08352116
     REPORT NOHYDRAULIC
     INTERNALS CS-1 STAGE1=2 STAGE2=5 P-UPDATE=NO TRAYTYPE=SIEVE  &
         NPASS=1 SYSFAC=1.000000000 OVER-DESIGN=1.000000000  &
         WEIR-HT=50.80000000 <mm> DC-CLEAR=38.10000000 <mm>  &
         DC-WTOP-SIDE=110.8226343 <mm> DC-WBOT-SIDE=110.8226343 <mm>  &
         HOLE-DIAM=12.70000000 <mm> HOLE-AREA=.1000000000  &
         FLOOD-METH=GLITSCH6 DECK-THICK=0.134 <IN>  &
         PCT-FLOOD-FA=80.00000000 AER-PARAM-M=1.000000000  &
         MAX-DC-LOAD=GLITSCH MAX-ACC-DP=.0250000000  &
         MAX-PCT-DCB=100.0000000 MAX-PCT-ENT=10.00000000  &
         MIN-WEIR-LD=4.470981863 MAX-WEIR-LD=117.3721131  &
         MIN-PCT-DCA=.1000000000
     TRAY-SIZE 1 2 5 SIEVE
     INTERNALS CS-2 STAGE1=6 STAGE2=32 P-UPDATE=NO  &
         TRAYTYPE=SIEVE NPASS=1 SYSFAC=1.000000000  &
         OVER-DESIGN=1.000000000 WEIR-HT=50.80000000 <mm>  &
         DC-CLEAR=38.10000000 <mm> DC-WTOP-SIDE=116.7395921 <mm>  &
         DC-WBOT-SIDE=116.7395921 <mm> HOLE-DIAM=12.70000000 <mm>  &
         HOLE-AREA=.1000000000 FLOOD-METH=GLITSCH6  &
         DECK-THICK=0.134 <IN> PCT-FLOOD-FA=80.00000000  &
         AER-PARAM-M=1.000000000 MAX-DC-LOAD=GLITSCH  &
         MAX-ACC-DP=.0250000000 MAX-PCT-DCB=100.0000000  &
         MAX-PCT-ENT=10.00000000 MIN-WEIR-LD=4.470981863  &
         MAX-WEIR-LD=117.3721131 MIN-PCT-DCA=.1000000000
     TRAY-SIZE 2 6 32 SIEVE
     UTILITIES COND-UTIL=REFRIG4 REB-UTIL=LP

 CHANGES WERE MADE TO BLOCK        RADFRAC2 04/17/2025   23:56:00:99 
 BLOCK RADFRAC2 RADFRAC
     SUBOBJECTS INTERNALS = CS-1 CS-2
     PARAM NSTAGE=40 ALGORITHM=STANDARD HYDRAULIC=NO MAXOL=25  &
         DAMPING=NONE
     PARAM2 STATIC-DP=YES OLD-SULZER=NO
     COL-CONFIG CONDENSER=TOTAL CA-CONFIG=INT-1
     FEEDS B1 26
     PRODUCTS B2 40 L / D2 1 L
     P-SPEC 1 213. <kPa>
     COL-SPECS D:F=0.89587835 MOLE-RR=1.380475227
     REPORT NOHYDRAULIC
     INTERNALS CS-1 STAGE1=2 STAGE2=26 P-UPDATE=NO  &
         TRAYTYPE=SIEVE NPASS=1 SYSFAC=1.000000000  &
         OVER-DESIGN=1.000000000 WEIR-HT=50.80000000 <mm>  &
         DC-CLEAR=38.10000000 <mm> DC-WTOP-SIDE=141.7971205 <mm>  &
         DC-WBOT-SIDE=141.7971205 <mm> HOLE-DIAM=12.70000000 <mm>  &
         HOLE-AREA=.1000000000 FLOOD-METH=GLITSCH6  &
         DECK-THICK=0.134 <IN> PCT-FLOOD-FA=80.00000000  &
         AER-PARAM-M=1.000000000 MAX-DC-LOAD=GLITSCH  &
         MAX-ACC-DP=.0250000000 MAX-PCT-DCB=100.0000000  &
         MAX-PCT-ENT=10.00000000 MIN-WEIR-LD=4.470981863  &
         MAX-WEIR-LD=117.3721131 MIN-PCT-DCA=.1000000000
     TRAY-SIZE 1 2 26 SIEVE
     INTERNALS CS-2 STAGE1=27 STAGE2=39 P-UPDATE=NO  &
         TRAYTYPE=SIEVE NPASS=1 SYSFAC=1.000000000  &
         OVER-DESIGN=1.000000000 WEIR-HT=50.80000000 <mm>  &
         DC-CLEAR=38.10000000 <mm> DC-WTOP-SIDE=137.1956554 <mm>  &
         DC-WBOT-SIDE=137.1956554 <mm> HOLE-DIAM=12.70000000 <mm>  &
         HOLE-AREA=.1000000000 FLOOD-METH=GLITSCH6  &
         DECK-THICK=0.134 <IN> PCT-FLOOD-FA=80.00000000  &
         AER-PARAM-M=1.000000000 MAX-DC-LOAD=GLITSCH  &
         MAX-ACC-DP=.0250000000 MAX-PCT-DCB=100.0000000  &
         MAX-PCT-ENT=10.00000000 MIN-WEIR-LD=4.470981863  &
         MAX-WEIR-LD=117.3721131 MIN-PCT-DCA=.1000000000
     TRAY-SIZE 2 27 39 SIEVE
     UTILITIES COND-UTIL=REFRIG1 REB-UTIL=LP

 PDF updated                                                                      TIME =      5.09
 THIS COPY OF ASPEN PLUS LICENSED TO JOHNS HOPKINS UNIVERSITY        
 
 


Calculations begin                                                              time      5.32


      UOS BLOCK RADFRAC1 MODEL: RADFRAC                                           TIME =      5.32

       Convergence iterations:
         OL   ML   IL     Err/Tol
          1    1    6      19.820    
          2    1    3     0.36364    

      UOS BLOCK RADFRAC2 MODEL: RADFRAC                                           TIME =      5.33

       Convergence iterations:
         OL   ML   IL     Err/Tol
          1    1    3      1.9279    
          2    1    2     0.46062E-01

      CHECKING PHASE EQUILIBRIUM RESULTS                                          TIME =      5.33

      CHECKING PHASE EQUILIBRIUM RESULTS                                          TIME =      5.33

 STREAM D1      
        SUBSTREAM MIXED     F =  3.168275167503850E-02  T =   129.064736370980      P =   525000.000000000    
                            H =  -22992823.0811558      V =   0.00000000000000      L =   1.00000000000000    
                            ENTROPY =  -3232.68634211696      DENSITY =   1107.12110193710      MW =   51.2347556372623    
        VINYL-01  2.060421003744239E-02  ACETY-01  1.078127717172254E-03  DICHL-01  1.873691020888581E-28
        OXYGE-01  3.836282704869841E-04  HYDRO-01  4.510939300977515E-03  WATER     1.715930768336717E-04
        NITROGEN  3.651082850151984E-03  CARBONMO  3.968568315382594E-04  METHANE   8.863135904354450E-04

 STREAM B1      
        SUBSTREAM MIXED     F =  3.446005388051721E-02  T =   308.699188521760      P =   525000.000000000    
                            H =   5866471.24361365      V =   0.00000000000000      L =   1.00000000000000    
                            ENTROPY =  -1925.78774230681      DENSITY =   892.455395910391      MW =   63.3728160161324    
        VINYL-01  3.363289056478420E-02  ACETY-01  8.506683239534950E-12  DICHL-01  8.267850728827827E-04
        OXYGE-01  1.266260224169193E-22  HYDRO-01  1.750736070565684E-11  WATER     3.782168361907985E-07
        NITROGEN  1.798135057071012E-22  CARBONMO  3.716587634661502E-23  METHANE   2.328489820734167E-19

 STREAM D2      
        SUBSTREAM MIXED     F =  3.087201621138888E-02  T =   278.650375544183      P =   213000.000000000    
                            H =   6288975.22212571      V =   0.00000000000000      L =   1.00000000000000    
                            ENTROPY =  -2093.65284557795      DENSITY =   936.077378116197      MW =   62.4979750055881    
        VINYL-01  3.087163796853844E-02  ACETY-01  8.506683247313758E-12  DICHL-01  2.498715334982727E-29
        OXYGE-01   0.00000000000000      HYDRO-01  1.750736072166617E-11  WATER     3.782168363949566E-07
        NITROGEN   0.00000000000000      CARBONMO   0.00000000000000      METHANE    0.00000000000000    

 STREAM B2      
        SUBSTREAM MIXED     F =  3.588037669128335E-03  T =   285.850483147698      P =   213000.000000000    
                            H =  -31587109.3708369      V =   0.00000000000000      L =   1.00000000000000    
                            ENTROPY =  -2255.83469989129      DENSITY =   1004.70364690735      MW =   70.9000796942966    
        VINYL-01  2.761252602750515E-03  ACETY-01  9.128572498514551E-31  DICHL-01  8.267850663776781E-04
        OXYGE-01   0.00000000000000      HYDRO-01  9.378272973289671E-31  WATER     1.416967110356859E-16
        NITROGEN   0.00000000000000      CARBONMO   0.00000000000000      METHANE    0.00000000000000    


*** INPUT SPECIFICATION MESSAGES ***

 FLOWSHEET    IS GENERATED BECAUSE OF OTHER CHANGES 04/17/2025   23:56:02:99 
 FLOWSHEET
     BLOCK RADFRAC1 IN=FEED OUT=D1 B1
     BLOCK RADFRAC2 IN=B1 OUT=D2 B2

 CHANGES WERE MADE TO BLOCK        RADFRAC1 04/17/2025   23:56:02:99 
 BLOCK RADFRAC1 RADFRAC
     SUBOBJECTS INTERNALS = CS-1 CS-2
     PARAM NSTAGE=33 ALGORITHM=STANDARD HYDRAULIC=NO MAXOL=25  &
         DAMPING=NONE
     PARAM2 STATIC-DP=YES OLD-SULZER=NO
     COL-CONFIG CONDENSER=TOTAL CA-CONFIG=INT-1
     FEEDS FEED 21
     PRODUCTS B1 33 L / D1 1 L
     P-SPEC 1 525. <kPa>
     COL-SPECS D:F=0.46334093663 MOLE-RR=1.027493491
     REPORT NOHYDRAULIC
     INTERNALS CS-1 STAGE1=2 STAGE2=5 P-UPDATE=NO TRAYTYPE=SIEVE  &
         NPASS=1 SYSFAC=1.000000000 OVER-DESIGN=1.000000000  &
         WEIR-HT=50.80000000 <mm> DC-CLEAR=38.10000000 <mm>  &
         DC-WTOP-SIDE=135.7335736 <mm> DC-WBOT-SIDE=135.7335736 <mm>  &
         HOLE-DIAM=12.70000000 <mm> HOLE-AREA=.1000000000  &
         FLOOD-METH=GLITSCH6 DECK-THICK=0.134 <IN>  &
         PCT-FLOOD-FA=80.00000000 AER-PARAM-M=1.000000000  &
         MAX-DC-LOAD=GLITSCH MAX-ACC-DP=.0250000000  &
         MAX-PCT-DCB=100.0000000 MAX-PCT-ENT=10.00000000  &
         MIN-WEIR-LD=4.470981863 MAX-WEIR-LD=117.3721131  &
         MIN-PCT-DCA=.1000000000
     TRAY-SIZE 1 2 5 SIEVE
     INTERNALS CS-2 STAGE1=6 STAGE2=32 P-UPDATE=NO  &
         TRAYTYPE=SIEVE NPASS=1 SYSFAC=1.000000000  &
         OVER-DESIGN=1.000000000 WEIR-HT=50.80000000 <mm>  &
         DC-CLEAR=38.10000000 <mm> DC-WTOP-SIDE=135.7395873 <mm>  &
         DC-WBOT-SIDE=135.7395873 <mm> HOLE-DIAM=12.70000000 <mm>  &
         HOLE-AREA=.1000000000 FLOOD-METH=GLITSCH6  &
         DECK-THICK=0.134 <IN> PCT-FLOOD-FA=80.00000000  &
         AER-PARAM-M=1.000000000 MAX-DC-LOAD=GLITSCH  &
         MAX-ACC-DP=.0250000000 MAX-PCT-DCB=100.0000000  &
         MAX-PCT-ENT=10.00000000 MIN-WEIR-LD=4.470981863  &
         MAX-WEIR-LD=117.3721131 MIN-PCT-DCA=.1000000000
     TRAY-SIZE 2 6 32 SIEVE
     UTILITIES COND-UTIL=REFRIG4 REB-UTIL=LP

 CHANGES WERE MADE TO BLOCK        RADFRAC2 04/17/2025   23:56:02:99 
 BLOCK RADFRAC2 RADFRAC
     SUBOBJECTS INTERNALS = CS-1 CS-2
     PARAM NSTAGE=38 ALGORITHM=STANDARD HYDRAULIC=NO MAXOL=25  &
         DAMPING=NONE
     PARAM2 STATIC-DP=YES OLD-SULZER=NO
     COL-CONFIG CONDENSER=TOTAL CA-CONFIG=INT-1
     FEEDS B1 28
     PRODUCTS B2 38 L / D2 1 L
     P-SPEC 1 213. <kPa>
     COL-SPECS D:F=0.9034680658 MOLE-RR=1.2687564134
     REPORT NOHYDRAULIC
     INTERNALS CS-1 STAGE1=2 STAGE2=26 P-UPDATE=NO  &
         TRAYTYPE=SIEVE NPASS=1 SYSFAC=1.000000000  &
         OVER-DESIGN=1.000000000 WEIR-HT=50.80000000 <mm>  &
         DC-CLEAR=38.10000000 <mm> DC-WTOP-SIDE=152.0104853 <mm>  &
         DC-WBOT-SIDE=152.0104853 <mm> HOLE-DIAM=12.70000000 <mm>  &
         HOLE-AREA=.1000000000 FLOOD-METH=GLITSCH6  &
         DECK-THICK=0.134 <IN> PCT-FLOOD-FA=80.00000000  &
         AER-PARAM-M=1.000000000 MAX-DC-LOAD=GLITSCH  &
         MAX-ACC-DP=.0250000000 MAX-PCT-DCB=100.0000000  &
         MAX-PCT-ENT=10.00000000 MIN-WEIR-LD=4.470981863  &
         MAX-WEIR-LD=117.3721131 MIN-PCT-DCA=.1000000000
     TRAY-SIZE 1 2 26 SIEVE
     INTERNALS CS-2 STAGE1=27 STAGE2=37 P-UPDATE=NO  &
         TRAYTYPE=SIEVE NPASS=1 SYSFAC=1.000000000  &
         OVER-DESIGN=1.000000000 WEIR-HT=50.80000000 <mm>  &
         DC-CLEAR=38.10000000 <mm> DC-WTOP-SIDE=147.9689397 <mm>  &
         DC-WBOT-SIDE=147.9689397 <mm> HOLE-DIAM=12.70000000 <mm>  &
         HOLE-AREA=.1000000000 FLOOD-METH=GLITSCH6  &
         DECK-THICK=0.134 <IN> PCT-FLOOD-FA=80.00000000  &
         AER-PARAM-M=1.000000000 MAX-DC-LOAD=GLITSCH  &
         MAX-ACC-DP=.0250000000 MAX-PCT-DCB=100.0000000  &
         MAX-PCT-ENT=10.00000000 MIN-WEIR-LD=4.470981863  &
         MAX-WEIR-LD=117.3721131 MIN-PCT-DCA=.1000000000
     TRAY-SIZE 2 27 37 SIEVE
     UTILITIES COND-UTIL=REFRIG1 REB-UTIL=LP

 PDF updated                                                                      TIME =      6.89
 THIS COPY OF ASPEN PLUS LICENSED TO JOHNS HOPKINS UNIVERSITY        
 
 


Calculations begin                                                              time      7.13


      UOS BLOCK RADFRAC1 MODEL: RADFRAC                                           TIME =      7.13

       Convergence iterations:
         OL   ML   IL     Err/Tol
          1    1    5      4.3132    
          2    1    3     0.18875    

      UOS BLOCK RADFRAC2 MODEL: RADFRAC                                           TIME =      7.14

       Convergence iterations:
         OL   ML   IL     Err/Tol
          1    1    3     0.88178    

      CHECKING PHASE EQUILIBRIUM RESULTS                                          TIME =      7.14

      CHECKING PHASE EQUILIBRIUM RESULTS                                          TIME =      7.14

 STREAM D1      
        SUBSTREAM MIXED     F =  3.064666947744717E-02  T =   128.307315592003      P =   525000.000000000    
                            H =  -23482778.3417383      V =   0.00000000000000      L =   1.00000000000000    
                            ENTROPY =  -3235.31651261244      DENSITY =   1106.41346057558      MW =   50.8534489575615    
        VINYL-01  1.956777725790503E-02  ACETY-01  1.078127730289762E-03  DICHL-01  1.241915716261100E-23
        OXYGE-01  3.836282721278256E-04  HYDRO-01  4.510939337778222E-03  WATER     1.719435861160216E-04
        NITROGEN  3.651082865768270E-03  CARBONMO  3.968568332356816E-04  METHANE   8.863135942263545E-04

 STREAM B1      
        SUBSTREAM MIXED     F =  3.549613607810853E-02  T =   308.675854657634      P =   525000.000000000    
                            H =   5983900.34842030      V =   0.00000000000000      L =   1.00000000000000    
                            ENTROPY =  -1925.30579966019      DENSITY =   892.232613956744      MW =   63.3477358177466    
        VINYL-01  3.466932330020112E-02  ACETY-01  5.072053193446764E-16  DICHL-01  8.267850696200949E-04
        OXYGE-01  1.286242265196760E-32  HYDRO-01  6.887023031721360E-16  WATER     2.770828611985812E-08
        NITROGEN  6.441964315851424E-33  CARBONMO  1.894125153278702E-33  METHANE   9.538426838406958E-28


*** INPUT SPECIFICATION MESSAGES ***

 FLOWSHEET    IS GENERATED BECAUSE OF OTHER CHANGES 04/17/2025   23:56:04:09 
 FLOWSHEET
     BLOCK RADFRAC1 IN=FEED OUT=D1 B1
     BLOCK RADFRAC2 IN=B1 OUT=D2 B2

 CHANGES WERE MADE TO BLOCK        RADFRAC1 04/17/2025   23:56:04:09 
 BLOCK RADFRAC1 RADFRAC
     SUBOBJECTS INTERNALS = CS-1 CS-2
     PARAM NSTAGE=35 ALGORITHM=STANDARD HYDRAULIC=NO MAXOL=25  &
         DAMPING=NONE
     PARAM2 STATIC-DP=YES OLD-SULZER=NO
     COL-CONFIG CONDENSER=TOTAL CA-CONFIG=INT-1
     FEEDS FEED 25
     PRODUCTS B1 35 L / D1 1 L
     P-SPEC 1 525. <kPa>
     COL-SPECS D:F=0.47807597399 MOLE-RR=1.0086049508
     REPORT NOHYDRAULIC
     INTERNALS CS-1 STAGE1=2 STAGE2=5 P-UPDATE=NO TRAYTYPE=SIEVE  &
         NPASS=1 SYSFAC=1.000000000 OVER-DESIGN=1.000000000  &
         WEIR-HT=50.80000000 <mm> DC-CLEAR=38.10000000 <mm>  &
         DC-WTOP-SIDE=130.4530680 <mm> DC-WBOT-SIDE=130.4530680 <mm>  &
         HOLE-DIAM=12.70000000 <mm> HOLE-AREA=.1000000000  &
         FLOOD-METH=GLITSCH6 DECK-THICK=0.134 <IN>  &
         PCT-FLOOD-FA=80.00000000 AER-PARAM-M=1.000000000  &
         MAX-DC-LOAD=GLITSCH MAX-ACC-DP=.0250000000  &
         MAX-PCT-DCB=100.0000000 MAX-PCT-ENT=10.00000000  &
         MIN-WEIR-LD=4.470981863 MAX-WEIR-LD=117.3721131  &
         MIN-PCT-DCA=.1000000000
     TRAY-SIZE 1 2 5 SIEVE
     INTERNALS CS-2 STAGE1=6 STAGE2=34 P-UPDATE=NO  &
         TRAYTYPE=SIEVE NPASS=1 SYSFAC=1.000000000  &
         OVER-DESIGN=1.000000000 WEIR-HT=50.80000000 <mm>  &
         DC-CLEAR=38.10000000 <mm> DC-WTOP-SIDE=130.4592701 <mm>  &
         DC-WBOT-SIDE=130.4592701 <mm> HOLE-DIAM=12.70000000 <mm>  &
         HOLE-AREA=.1000000000 FLOOD-METH=GLITSCH6  &
         DECK-THICK=0.134 <IN> PCT-FLOOD-FA=80.00000000  &
         AER-PARAM-M=1.000000000 MAX-DC-LOAD=GLITSCH  &
         MAX-ACC-DP=.0250000000 MAX-PCT-DCB=100.0000000  &
         MAX-PCT-ENT=10.00000000 MIN-WEIR-LD=4.470981863  &
         MAX-WEIR-LD=117.3721131 MIN-PCT-DCA=.1000000000
     TRAY-SIZE 2 6 34 SIEVE
     UTILITIES COND-UTIL=REFRIG4 REB-UTIL=LP

 CHANGES WERE MADE TO BLOCK        RADFRAC2 04/17/2025   23:56:04:09 
 BLOCK RADFRAC2 RADFRAC
     SUBOBJECTS INTERNALS = CS-1 CS-2
     PARAM NSTAGE=40 ALGORITHM=STANDARD HYDRAULIC=NO MAXOL=25  &
         DAMPING=NONE
     PARAM2 STATIC-DP=YES OLD-SULZER=NO
     COL-CONFIG CONDENSER=TOTAL CA-CONFIG=INT-1
     FEEDS B1 12
     PRODUCTS B2 40 L / D2 1 L
     P-SPEC 1 213. <kPa>
     COL-SPECS D:F=0.89074611429 MOLE-RR=1.0238369851
     REPORT NOHYDRAULIC
     INTERNALS CS-1 STAGE1=2 STAGE2=26 P-UPDATE=NO  &
         TRAYTYPE=SIEVE NPASS=1 SYSFAC=1.000000000  &
         OVER-DESIGN=1.000000000 WEIR-HT=50.80000000 <mm>  &
         DC-CLEAR=38.10000000 <mm> DC-WTOP-SIDE=151.1286542 <mm>  &
         DC-WBOT-SIDE=151.1286542 <mm> HOLE-DIAM=12.70000000 <mm>  &
         HOLE-AREA=.1000000000 FLOOD-METH=GLITSCH6  &
         DECK-THICK=0.134 <IN> PCT-FLOOD-FA=80.00000000  &
         AER-PARAM-M=1.000000000 MAX-DC-LOAD=GLITSCH  &
         MAX-ACC-DP=.0250000000 MAX-PCT-DCB=100.0000000  &
         MAX-PCT-ENT=10.00000000 MIN-WEIR-LD=4.470981863  &
         MAX-WEIR-LD=117.3721131 MIN-PCT-DCA=.1000000000
     TRAY-SIZE 1 2 26 SIEVE
     INTERNALS CS-2 STAGE1=27 STAGE2=39 P-UPDATE=NO  &
         TRAYTYPE=SIEVE NPASS=1 SYSFAC=1.000000000  &
         OVER-DESIGN=1.000000000 WEIR-HT=50.80000000 <mm>  &
         DC-CLEAR=38.10000000 <mm> DC-WTOP-SIDE=151.0841800 <mm>  &
         DC-WBOT-SIDE=151.0841800 <mm> HOLE-DIAM=12.70000000 <mm>  &
         HOLE-AREA=.1000000000 FLOOD-METH=GLITSCH6  &
         DECK-THICK=0.134 <IN> PCT-FLOOD-FA=80.00000000  &
         AER-PARAM-M=1.000000000 MAX-DC-LOAD=GLITSCH  &
         MAX-ACC-DP=.0250000000 MAX-PCT-DCB=100.0000000  &
         MAX-PCT-ENT=10.00000000 MIN-WEIR-LD=4.470981863  &
         MAX-WEIR-LD=117.3721131 MIN-PCT-DCA=.1000000000
     TRAY-SIZE 2 27 39 SIEVE
     UTILITIES COND-UTIL=REFRIG1 REB-UTIL=LP

 PDF updated                                                                      TIME =      8.69
 THIS COPY OF ASPEN PLUS LICENSED TO JOHNS HOPKINS UNIVERSITY        
 
 


Calculations begin                                                              time      8.96


      UOS BLOCK RADFRAC1 MODEL: RADFRAC                                           TIME =      8.96

       Convergence iterations:
         OL   ML   IL     Err/Tol
          1    1    5      2.6287    
          2    1    3     0.14361    

      UOS BLOCK RADFRAC2 MODEL: RADFRAC                                           TIME =      8.97

       Convergence iterations:
         OL   ML   IL     Err/Tol
          1    1    4      1.8370    
          2    1    2     0.39637E-01

      CHECKING PHASE EQUILIBRIUM RESULTS                                          TIME =      8.97

      CHECKING PHASE EQUILIBRIUM RESULTS                                          TIME =      8.97

 STREAM D2      
        SUBSTREAM MIXED     F =  3.074990923567782E-02  T =   278.651170091602      P =   213000.000000000    
                            H =   6291688.39890088      V =   0.00000000000000      L =   1.00000000000000    
                            ENTROPY =  -2093.65061098434      DENSITY =   936.074605976672      MW =   62.4984165025047    
        VINYL-01  3.074983769097202E-02  ACETY-01  2.249379847746906E-14  DICHL-01  1.092858781945477E-14
        OXYGE-01   0.00000000000000      HYDRO-01  3.607438955834240E-14  WATER     7.154463630383666E-08
        NITROGEN   0.00000000000000      CARBONMO   0.00000000000000      METHANE    0.00000000000000    

 STREAM B2      
        SUBSTREAM MIXED     F =  3.771610131474382E-03  T =   285.447847095337      P =   213000.000000000    
                            H =  -29750286.4195652      V =   0.00000000000000      L =   1.00000000000000    
                            ENTROPY =  -2247.67734957104      DENSITY =   1001.65246130393      MW =   70.4911575414638    
        VINYL-01  2.944825063286131E-03  ACETY-01  4.935749170968742E-49  DICHL-01  8.267850681882505E-04
        OXYGE-01   0.00000000000000      HYDRO-01  2.118548915813441E-49  WATER     1.385740382180239E-24
        NITROGEN   0.00000000000000      CARBONMO   0.00000000000000      METHANE    0.00000000000000    


*** INPUT SPECIFICATION MESSAGES ***

 FLOWSHEET    IS GENERATED BECAUSE OF OTHER CHANGES 04/17/2025   23:56:05:99 
 FLOWSHEET
     BLOCK RADFRAC1 IN=FEED OUT=D1 B1
     BLOCK RADFRAC2 IN=B1 OUT=D2 B2

 CHANGES WERE MADE TO BLOCK        RADFRAC1 04/17/2025   23:56:05:99 
 BLOCK RADFRAC1 RADFRAC
     SUBOBJECTS INTERNALS = CS-1 CS-2
     PARAM NSTAGE=32 ALGORITHM=STANDARD HYDRAULIC=NO MAXOL=25  &
         DAMPING=NONE
     PARAM2 STATIC-DP=YES OLD-SULZER=NO
     COL-CONFIG CONDENSER=TOTAL CA-CONFIG=INT-1
     FEEDS FEED 28
     PRODUCTS B1 32 L / D1 1 L
     P-SPEC 1 525. <kPa>
     COL-SPECS D:F=0.46393395065 MOLE-RR=0.98322792453
     REPORT NOHYDRAULIC
     INTERNALS CS-1 STAGE1=2 STAGE2=5 P-UPDATE=NO TRAYTYPE=SIEVE  &
         NPASS=1 SYSFAC=1.000000000 OVER-DESIGN=1.000000000  &
         WEIR-HT=50.80000000 <mm> DC-CLEAR=38.10000000 <mm>  &
         DC-WTOP-SIDE=132.1765098 <mm> DC-WBOT-SIDE=132.1765098 <mm>  &
         HOLE-DIAM=12.70000000 <mm> HOLE-AREA=.1000000000  &
         FLOOD-METH=GLITSCH6 DECK-THICK=0.134 <IN>  &
         PCT-FLOOD-FA=80.00000000 AER-PARAM-M=1.000000000  &
         MAX-DC-LOAD=GLITSCH MAX-ACC-DP=.0250000000  &
         MAX-PCT-DCB=100.0000000 MAX-PCT-ENT=10.00000000  &
         MIN-WEIR-LD=4.470981863 MAX-WEIR-LD=117.3721131  &
         MIN-PCT-DCA=.1000000000
     TRAY-SIZE 1 2 5 SIEVE
     INTERNALS CS-2 STAGE1=6 STAGE2=31 P-UPDATE=NO  &
         TRAYTYPE=SIEVE NPASS=1 SYSFAC=1.000000000  &
         OVER-DESIGN=1.000000000 WEIR-HT=50.80000000 <mm>  &
         DC-CLEAR=38.10000000 <mm> DC-WTOP-SIDE=132.1821949 <mm>  &
         DC-WBOT-SIDE=132.1821949 <mm> HOLE-DIAM=12.70000000 <mm>  &
         HOLE-AREA=.1000000000 FLOOD-METH=GLITSCH6  &
         DECK-THICK=0.134 <IN> PCT-FLOOD-FA=80.00000000  &
         AER-PARAM-M=1.000000000 MAX-DC-LOAD=GLITSCH  &
         MAX-ACC-DP=.0250000000 MAX-PCT-DCB=100.0000000  &
         MAX-PCT-ENT=10.00000000 MIN-WEIR-LD=4.470981863  &
         MAX-WEIR-LD=117.3721131 MIN-PCT-DCA=.1000000000
     TRAY-SIZE 2 6 31 SIEVE
     UTILITIES COND-UTIL=REFRIG4 REB-UTIL=LP

 CHANGES WERE MADE TO BLOCK        RADFRAC2 04/17/2025   23:56:05:99 
 BLOCK RADFRAC2 RADFRAC
     SUBOBJECTS INTERNALS = CS-1 CS-2
     PARAM NSTAGE=36 ALGORITHM=STANDARD HYDRAULIC=NO MAXOL=25  &
         DAMPING=NONE
     PARAM2 STATIC-DP=YES OLD-SULZER=NO
     COL-CONFIG CONDENSER=TOTAL CA-CONFIG=INT-1
     FEEDS B1 30
     PRODUCTS B2 36 L / D2 1 L
     P-SPEC 1 213. <kPa>
     COL-SPECS D:F=0.90143464189 MOLE-RR=0.48847309632
     REPORT NOHYDRAULIC
     INTERNALS CS-1 STAGE1=2 STAGE2=26 P-UPDATE=NO  &
         TRAYTYPE=SIEVE NPASS=1 SYSFAC=1.000000000  &
         OVER-DESIGN=1.000000000 WEIR-HT=50.80000000 <mm>  &
         DC-CLEAR=38.10000000 <mm> DC-WTOP-SIDE=139.3299714 <mm>  &
         DC-WBOT-SIDE=139.3299714 <mm> HOLE-DIAM=12.70000000 <mm>  &
         HOLE-AREA=.1000000000 FLOOD-METH=GLITSCH6  &
         DECK-THICK=0.134 <IN> PCT-FLOOD-FA=80.00000000  &
         AER-PARAM-M=1.000000000 MAX-DC-LOAD=GLITSCH  &
         MAX-ACC-DP=.0250000000 MAX-PCT-DCB=100.0000000  &
         MAX-PCT-ENT=10.00000000 MIN-WEIR-LD=4.470981863  &
         MAX-WEIR-LD=117.3721131 MIN-PCT-DCA=.1000000000
     TRAY-SIZE 1 2 26 SIEVE
     INTERNALS CS-2 STAGE1=27 STAGE2=35 P-UPDATE=NO  &
         TRAYTYPE=SIEVE NPASS=1 SYSFAC=1.000000000  &
         OVER-DESIGN=1.000000000 WEIR-HT=50.80000000 <mm>  &
         DC-CLEAR=38.10000000 <mm> DC-WTOP-SIDE=134.7185282 <mm>  &
         DC-WBOT-SIDE=134.7185282 <mm> HOLE-DIAM=12.70000000 <mm>  &
         HOLE-AREA=.1000000000 FLOOD-METH=GLITSCH6  &
         DECK-THICK=0.134 <IN> PCT-FLOOD-FA=80.00000000  &
         AER-PARAM-M=1.000000000 MAX-DC-LOAD=GLITSCH  &
         MAX-ACC-DP=.0250000000 MAX-PCT-DCB=100.0000000  &
         MAX-PCT-ENT=10.00000000 MIN-WEIR-LD=4.470981863  &
         MAX-WEIR-LD=117.3721131 MIN-PCT-DCA=.1000000000
     TRAY-SIZE 2 27 35 SIEVE
     UTILITIES COND-UTIL=REFRIG1 REB-UTIL=LP

 PDF updated                                                                      TIME =     10.49
 THIS COPY OF ASPEN PLUS LICENSED TO JOHNS HOPKINS UNIVERSITY        
 
 


Calculations begin                                                              time     10.81


      UOS BLOCK RADFRAC1 MODEL: RADFRAC                                           TIME =     10.81

       Convergence iterations:
         OL   ML   IL     Err/Tol
          1    1    4      3.4675    
          2    1    3     0.12826    

      UOS BLOCK RADFRAC2 MODEL: RADFRAC                                           TIME =     10.81

       Convergence iterations:
         OL   ML   IL     Err/Tol
          1    1    3      1.2903    
          2    1    2     0.27777E-01

      CHECKING PHASE EQUILIBRIUM RESULTS                                          TIME =     10.82

      CHECKING PHASE EQUILIBRIUM RESULTS                                          TIME =     10.82

 STREAM D1      
        SUBSTREAM MIXED     F =  3.068589308846375E-02  T =   128.334003218947      P =   525000.000000000    
                            H =  -23431361.9083025      V =   0.00000000000000      L =   1.00000000000000    
                            ENTROPY =  -3234.95656755828      DENSITY =   1106.43383491074      MW =   50.8734057173661    
        VINYL-01  1.961050700030110E-02  ACETY-01  1.078121839741664E-03  DICHL-01  3.857537136182751E-30
        OXYGE-01  3.836282721988783E-04  HYDRO-01  4.510923747219429E-03  WATER     1.684589349071316E-04
        NITROGEN  3.651082866446250E-03  CARBONMO  3.968568333093356E-04  METHANE   8.863135943399630E-04

 STREAM B1      
        SUBSTREAM MIXED     F =  3.545691246709196E-02  T =   308.670185532089      P =   525000.000000000    
                            H =   5952731.48414402      V =   0.00000000000000      L =   1.00000000000000    
                            ENTROPY =  -1925.35179028892      DENSITY =   892.267590031760      MW =   63.3442859961829    
        VINYL-01  3.462659355587792E-02  ACETY-01  5.890749004639222E-09  DICHL-01  8.267850694875120E-04
        OXYGE-01  2.556312091116158E-16  HYDRO-01  1.559139797405376E-08  WATER     3.512359527357139E-06
        NITROGEN  6.781088692689757E-16  CARBONMO  1.134581087424508E-16  METHANE   5.113895062604334E-14


*** INPUT SPECIFICATION MESSAGES ***

 FLOWSHEET    IS GENERATED BECAUSE OF OTHER CHANGES 04/17/2025   23:56:07:99 
 FLOWSHEET
     BLOCK RADFRAC1 IN=FEED OUT=D1 B1
     BLOCK RADFRAC2 IN=B1 OUT=D2 B2

 CHANGES WERE MADE TO BLOCK        RADFRAC1 04/17/2025   23:56:07:99 
 BLOCK RADFRAC1 RADFRAC
     SUBOBJECTS INTERNALS = CS-1 CS-2
     PARAM NSTAGE=30 ALGORITHM=STANDARD HYDRAULIC=NO MAXOL=25  &
         DAMPING=NONE
     PARAM2 STATIC-DP=YES OLD-SULZER=NO
     COL-CONFIG CONDENSER=TOTAL CA-CONFIG=INT-1
     FEEDS FEED 5
     PRODUCTS B1 30 L / D1 1 L
     P-SPEC 1 525. <kPa>
     COL-SPECS D:F=0.47516678626 MOLE-RR=0.55822668161
     REPORT NOHYDRAULIC
     INTERNALS CS-1 STAGE1=2 STAGE2=5 P-UPDATE=NO TRAYTYPE=SIEVE  &
         NPASS=1 SYSFAC=1.000000000 OVER-DESIGN=1.000000000  &
         WEIR-HT=50.80000000 <mm> DC-CLEAR=38.10000000 <mm>  &
         DC-WTOP-SIDE=128.5679943 <mm> DC-WBOT-SIDE=128.5679943 <mm>  &
         HOLE-DIAM=12.70000000 <mm> HOLE-AREA=.1000000000  &
         FLOOD-METH=GLITSCH6 DECK-THICK=0.134 <IN>  &
         PCT-FLOOD-FA=80.00000000 AER-PARAM-M=1.000000000  &
         MAX-DC-LOAD=GLITSCH MAX-ACC-DP=.0250000000  &
         MAX-PCT-DCB=100.0000000 MAX-PCT-ENT=10.00000000  &
         MIN-WEIR-LD=4.470981863 MAX-WEIR-LD=117.3721131  &
         MIN-PCT-DCA=.1000000000
     TRAY-SIZE 1 2 5 SIEVE
     INTERNALS CS-2 STAGE1=6 STAGE2=29 P-UPDATE=NO  &
         TRAYTYPE=SIEVE NPASS=1 SYSFAC=1.000000000  &
         OVER-DESIGN=1.000000000 WEIR-HT=50.80000000 <mm>  &
         DC-CLEAR=38.10000000 <mm> DC-WTOP-SIDE=128.5736338 <mm>  &
         DC-WBOT-SIDE=128.5736338 <mm> HOLE-DIAM=12.70000000 <mm>  &
         HOLE-AREA=.1000000000 FLOOD-METH=GLITSCH6  &
         DECK-THICK=0.134 <IN> PCT-FLOOD-FA=80.00000000  &
         AER-PARAM-M=1.000000000 MAX-DC-LOAD=GLITSCH  &
         MAX-ACC-DP=.0250000000 MAX-PCT-DCB=100.0000000  &
         MAX-PCT-ENT=10.00000000 MIN-WEIR-LD=4.470981863  &
         MAX-WEIR-LD=117.3721131 MIN-PCT-DCA=.1000000000
     TRAY-SIZE 2 6 29 SIEVE
     UTILITIES COND-UTIL=REFRIG4 REB-UTIL=LP

 CHANGES WERE MADE TO BLOCK        RADFRAC2 04/17/2025   23:56:07:99 
 BLOCK RADFRAC2 RADFRAC
     SUBOBJECTS INTERNALS = CS-1 CS-2
     PARAM NSTAGE=39 ALGORITHM=STANDARD HYDRAULIC=NO MAXOL=25  &
         DAMPING=NONE
     PARAM2 STATIC-DP=YES OLD-SULZER=NO
     COL-CONFIG CONDENSER=TOTAL CA-CONFIG=INT-1
     FEEDS B1 6
     PRODUCTS B2 39 L / D2 1 L
     P-SPEC 1 213. <kPa>
     COL-SPECS D:F=0.8924679121 MOLE-RR=0.95726711718
     REPORT NOHYDRAULIC
     INTERNALS CS-1 STAGE1=2 STAGE2=26 P-UPDATE=NO  &
         TRAYTYPE=SIEVE NPASS=1 SYSFAC=1.000000000  &
         OVER-DESIGN=1.000000000 WEIR-HT=50.80000000 <mm>  &
         DC-CLEAR=38.10000000 <mm> DC-WTOP-SIDE=120.9700019 <mm>  &
         DC-WBOT-SIDE=120.9700019 <mm> HOLE-DIAM=12.70000000 <mm>  &
         HOLE-AREA=.1000000000 FLOOD-METH=GLITSCH6  &
         DECK-THICK=0.134 <IN> PCT-FLOOD-FA=80.00000000  &
         AER-PARAM-M=1.000000000 MAX-DC-LOAD=GLITSCH  &
         MAX-ACC-DP=.0250000000 MAX-PCT-DCB=100.0000000  &
         MAX-PCT-ENT=10.00000000 MIN-WEIR-LD=4.470981863  &
         MAX-WEIR-LD=117.3721131 MIN-PCT-DCA=.1000000000
     TRAY-SIZE 1 2 26 SIEVE
     INTERNALS CS-2 STAGE1=27 STAGE2=38 P-UPDATE=NO  &
         TRAYTYPE=SIEVE NPASS=1 SYSFAC=1.000000000  &
         OVER-DESIGN=1.000000000 WEIR-HT=50.80000000 <mm>  &
         DC-CLEAR=38.10000000 <mm> DC-WTOP-SIDE=120.9678263 <mm>  &
         DC-WBOT-SIDE=120.9678263 <mm> HOLE-DIAM=12.70000000 <mm>  &
         HOLE-AREA=.1000000000 FLOOD-METH=GLITSCH6  &
         DECK-THICK=0.134 <IN> PCT-FLOOD-FA=80.00000000  &
         AER-PARAM-M=1.000000000 MAX-DC-LOAD=GLITSCH  &
         MAX-ACC-DP=.0250000000 MAX-PCT-DCB=100.0000000  &
         MAX-PCT-ENT=10.00000000 MIN-WEIR-LD=4.470981863  &
         MAX-WEIR-LD=117.3721131 MIN-PCT-DCA=.1000000000
     TRAY-SIZE 2 27 38 SIEVE
     UTILITIES COND-UTIL=REFRIG1 REB-UTIL=LP

 PDF updated                                                                      TIME =     12.32
 THIS COPY OF ASPEN PLUS LICENSED TO JOHNS HOPKINS UNIVERSITY        
 
 


Calculations begin                                                              time     12.56


      UOS BLOCK RADFRAC1 MODEL: RADFRAC                                           TIME =     12.56

       Convergence iterations:
         OL   ML   IL     Err/Tol
          1    1    5      18.842    
          2    1    3     0.93405    

      UOS BLOCK RADFRAC2 MODEL: RADFRAC                                           TIME =     12.56

       Convergence iterations:
         OL   ML   IL     Err/Tol
          1    1    4      3.0327    
          2    1    2     0.32948E-01

      CHECKING PHASE EQUILIBRIUM RESULTS                                          TIME =     12.57

      CHECKING PHASE EQUILIBRIUM RESULTS                                          TIME =     12.57

 STREAM D1      
        SUBSTREAM MIXED     F =  3.142886435005350E-02  T =   128.880646744058      P =   525000.000000000    
                            H =  -23113233.5348171      V =   0.00000000000000      L =   1.00000000000000    
                            ENTROPY =  -3233.38224722412      DENSITY =   1106.95973509133      MW =   51.1432833735497    
        VINYL-01  2.034989956554345E-02  ACETY-01  1.078127731053854E-03  DICHL-01  4.545757039804448E-08
        OXYGE-01  3.836282723995311E-04  HYDRO-01  4.510939340973794E-03  WATER     1.719706857874713E-04
        NITROGEN  3.651082868354157E-03  CARBONMO  3.968568335167562E-04  METHANE   8.863135948540887E-04

 STREAM B1      
        SUBSTREAM MIXED     F =  3.471394120550220E-02  T =   308.693835396304      P =   525000.000000000    
                            H =   5898410.11901773      V =   0.00000000000000      L =   1.00000000000000    
                            ENTROPY =  -1925.66595446424      DENSITY =   892.396909036583      MW =   63.3668578269454    
        VINYL-01  3.388720098523761E-02  ACETY-01  9.749164104718361E-26  DICHL-01  8.267396115281211E-04
        OXYGE-01  2.551857504898233E-57  HYDRO-01  4.520818950876877E-26  WATER     6.087364557952247E-10
        NITROGEN  8.519073739459367E-59  CARBONMO  6.259950407083865E-59  METHANE   2.819887421048618E-48

 STREAM D2      
        SUBSTREAM MIXED     F =  3.098107862843671E-02  T =   278.651359779644      P =   213000.000000000    
                            H =   6292289.26071589      V =   0.00000000000000      L =   1.00000000000000    
                            ENTROPY =  -2093.65051584368      DENSITY =   936.074020232495      MW =   62.4985257211189    
        VINYL-01  3.098107241571187E-02  ACETY-01   0.00000000000000      DICHL-01  5.603988383296573E-09
        OXYGE-01   0.00000000000000      HYDRO-01   0.00000000000000      WATER     6.087364557952233E-10
        NITROGEN   0.00000000000000      CARBONMO   0.00000000000000      METHANE    0.00000000000000    

 STREAM B2      
        SUBSTREAM MIXED     F =  3.732862577065479E-03  T =   285.528525370170      P =   213000.000000000    
                            H =  -30120780.0972142      V =   0.00000000000000      L =   1.00000000000000    
                            ENTROPY =  -2249.32615465555      DENSITY =   1002.27018940871      MW =   70.5736233295099    
        VINYL-01  2.906128569525725E-03  ACETY-01   0.00000000000000      DICHL-01  8.267340075397530E-04
        OXYGE-01   0.00000000000000      HYDRO-01   0.00000000000000      WATER     2.732863818831580E-29
        NITROGEN   0.00000000000000      CARBONMO   0.00000000000000      METHANE    0.00000000000000    


*** INPUT SPECIFICATION MESSAGES ***

 FLOWSHEET    IS GENERATED BECAUSE OF OTHER CHANGES 04/17/2025   23:56:09:99 
 FLOWSHEET
     BLOCK RADFRAC1 IN=FEED OUT=D1 B1
     BLOCK RADFRAC2 IN=B1 OUT=D2 B2

 CHANGES WERE MADE TO BLOCK        RADFRAC1 04/17/2025   23:56:09:99 
 BLOCK RADFRAC1 RADFRAC
     SUBOBJECTS INTERNALS = CS-1 CS-2
     PARAM NSTAGE=31 ALGORITHM=STANDARD HYDRAULIC=NO MAXOL=25  &
         DAMPING=NONE
     PARAM2 STATIC-DP=YES OLD-SULZER=NO
     COL-CONFIG CONDENSER=TOTAL CA-CONFIG=INT-1
     FEEDS FEED 8
     PRODUCTS B1 31 L / D1 1 L
     P-SPEC 1 525. <kPa>
     COL-SPECS D:F=0.47840948142 MOLE-RR=0.12254083125
     REPORT NOHYDRAULIC
     INTERNALS CS-1 STAGE1=2 STAGE2=5 P-UPDATE=NO TRAYTYPE=SIEVE  &
         NPASS=1 SYSFAC=1.000000000 OVER-DESIGN=1.000000000  &
         WEIR-HT=50.80000000 <mm> DC-CLEAR=38.10000000 <mm>  &
         DC-WTOP-SIDE=114.3651646 <mm> DC-WBOT-SIDE=114.3651646 <mm>  &
         HOLE-DIAM=12.70000000 <mm> HOLE-AREA=.1000000000  &
         FLOOD-METH=GLITSCH6 DECK-THICK=0.134 <IN>  &
         PCT-FLOOD-FA=80.00000000 AER-PARAM-M=1.000000000  &
         MAX-DC-LOAD=GLITSCH MAX-ACC-DP=.0250000000  &
         MAX-PCT-DCB=100.0000000 MAX-PCT-ENT=10.00000000  &
         MIN-WEIR-LD=4.470981863 MAX-WEIR-LD=117.3721131  &
         MIN-PCT-DCA=.1000000000
     TRAY-SIZE 1 2 5 SIEVE
     INTERNALS CS-2 STAGE1=6 STAGE2=30 P-UPDATE=NO  &
         TRAYTYPE=SIEVE NPASS=1 SYSFAC=1.000000000  &
         OVER-DESIGN=1.000000000 WEIR-HT=50.80000000 <mm>  &
         DC-CLEAR=38.10000000 <mm> DC-WTOP-SIDE=117.2648817 <mm>  &
         DC-WBOT-SIDE=117.2648817 <mm> HOLE-DIAM=12.70000000 <mm>  &
         HOLE-AREA=.1000000000 FLOOD-METH=GLITSCH6  &
         DECK-THICK=0.134 <IN> PCT-FLOOD-FA=80.00000000  &
         AER-PARAM-M=1.000000000 MAX-DC-LOAD=GLITSCH  &
         MAX-ACC-DP=.0250000000 MAX-PCT-DCB=100.0000000  &
         MAX-PCT-ENT=10.00000000 MIN-WEIR-LD=4.470981863  &
         MAX-WEIR-LD=117.3721131 MIN-PCT-DCA=.1000000000
     TRAY-SIZE 2 6 30 SIEVE
     UTILITIES COND-UTIL=REFRIG4 REB-UTIL=LP

 CHANGES WERE MADE TO BLOCK        RADFRAC2 04/17/2025   23:56:09:99 
 BLOCK RADFRAC2 RADFRAC
     SUBOBJECTS INTERNALS = CS-1 CS-2
     PARAM NSTAGE=37 ALGORITHM=STANDARD HYDRAULIC=NO MAXOL=25  &
         DAMPING=NONE
     PARAM2 STATIC-DP=YES OLD-SULZER=NO
     COL-CONFIG CONDENSER=TOTAL CA-CONFIG=INT-1
     FEEDS B1 33
     PRODUCTS B2 37 L / D2 1 L
     P-SPEC 1 213. <kPa>
     COL-SPECS D:F=0.8941633323 MOLE-RR=1.3108157079
     REPORT NOHYDRAULIC
     INTERNALS CS-1 STAGE1=2 STAGE2=26 P-UPDATE=NO  &
         TRAYTYPE=SIEVE NPASS=1 SYSFAC=1.000000000  &
         OVER-DESIGN=1.000000000 WEIR-HT=50.80000000 <mm>  &
         DC-CLEAR=38.10000000 <mm> DC-WTOP-SIDE=137.4318471 <mm>  &
         DC-WBOT-SIDE=137.4318471 <mm> HOLE-DIAM=12.70000000 <mm>  &
         HOLE-AREA=.1000000000 FLOOD-METH=GLITSCH6  &
         DECK-THICK=0.134 <IN> PCT-FLOOD-FA=80.00000000  &
         AER-PARAM-M=1.000000000 MAX-DC-LOAD=GLITSCH  &
         MAX-ACC-DP=.0250000000 MAX-PCT-DCB=100.0000000  &
         MAX-PCT-ENT=10.00000000 MIN-WEIR-LD=4.470981863  &
         MAX-WEIR-LD=117.3721131 MIN-PCT-DCA=.1000000000
     TRAY-SIZE 1 2 26 SIEVE
     INTERNALS CS-2 STAGE1=27 STAGE2=36 P-UPDATE=NO  &
         TRAYTYPE=SIEVE NPASS=1 SYSFAC=1.000000000  &
         OVER-DESIGN=1.000000000 WEIR-HT=50.80000000 <mm>  &
         DC-CLEAR=38.10000000 <mm> DC-WTOP-SIDE=132.7018134 <mm>  &
         DC-WBOT-SIDE=132.7018134 <mm> HOLE-DIAM=12.70000000 <mm>  &
         HOLE-AREA=.1000000000 FLOOD-METH=GLITSCH6  &
         DECK-THICK=0.134 <IN> PCT-FLOOD-FA=80.00000000  &
         AER-PARAM-M=1.000000000 MAX-DC-LOAD=GLITSCH  &
         MAX-ACC-DP=.0250000000 MAX-PCT-DCB=100.0000000  &
         MAX-PCT-ENT=10.00000000 MIN-WEIR-LD=4.470981863  &
         MAX-WEIR-LD=117.3721131 MIN-PCT-DCA=.1000000000
     TRAY-SIZE 2 27 36 SIEVE
     UTILITIES COND-UTIL=REFRIG1 REB-UTIL=LP

 PDF updated                                                                      TIME =     14.00
 THIS COPY OF ASPEN PLUS LICENSED TO JOHNS HOPKINS UNIVERSITY        
 
 


Calculations begin                                                              time     14.32


      UOS BLOCK RADFRAC1 MODEL: RADFRAC                                           TIME =     14.32

       Convergence iterations:
         OL   ML   IL     Err/Tol
          1    1   10      13818.    
          2    1    7      1845.4    
          3    1    7      4150.7    
          4    1    4      6166.7    
          5    1    8      19620.    
          6    1    5      7211.3    
          7    1    4      1112.6    
          8    1    3      129.34    
          9    1    4      66.788    
         10    1    4      63.749    
         11    1    4      41.861    
         12    1    3      18.394    
         13    1    4      8.4765    
         14    1    3      3.8512    
         15    1    3      1.6931    
         16    1    3     0.71911    

      UOS BLOCK RADFRAC2 MODEL: RADFRAC                                           TIME =     14.33

       Convergence iterations:
         OL   ML   IL     Err/Tol
          1    1    3     0.53224    

      CHECKING PHASE EQUILIBRIUM RESULTS                                          TIME =     14.33

      CHECKING PHASE EQUILIBRIUM RESULTS                                          TIME =     14.33


*** INPUT SPECIFICATION MESSAGES ***

 FLOWSHEET    IS GENERATED BECAUSE OF OTHER CHANGES 04/17/2025   23:56:11:99 
 FLOWSHEET
     BLOCK RADFRAC1 IN=FEED OUT=D1 B1
     BLOCK RADFRAC2 IN=B1 OUT=D2 B2

 CHANGES WERE MADE TO BLOCK        RADFRAC1 04/17/2025   23:56:11:99 
 BLOCK RADFRAC1 RADFRAC
     SUBOBJECTS INTERNALS = CS-1 CS-2
     PARAM NSTAGE=35 ALGORITHM=STANDARD HYDRAULIC=NO MAXOL=25  &
         DAMPING=NONE
     PARAM2 STATIC-DP=YES OLD-SULZER=NO
     COL-CONFIG CONDENSER=TOTAL CA-CONFIG=INT-1
     FEEDS FEED 28
     PRODUCTS B1 35 L / D1 1 L
     P-SPEC 1 525. <kPa>
     COL-SPECS D:F=0.47133568092 MOLE-RR=0.9294841739
     REPORT NOHYDRAULIC
     INTERNALS CS-1 STAGE1=2 STAGE2=5 P-UPDATE=NO TRAYTYPE=SIEVE  &
         NPASS=1 SYSFAC=1.000000000 OVER-DESIGN=1.000000000  &
         WEIR-HT=50.80000000 <mm> DC-CLEAR=38.10000000 <mm>  &
         DC-WTOP-SIDE=84.52898043 <mm> DC-WBOT-SIDE=84.52898043 <mm>  &
         HOLE-DIAM=12.70000000 <mm> HOLE-AREA=.1000000000  &
         FLOOD-METH=GLITSCH6 DECK-THICK=0.134 <IN>  &
         PCT-FLOOD-FA=80.00000000 AER-PARAM-M=1.000000000  &
         MAX-DC-LOAD=GLITSCH MAX-ACC-DP=.0250000000  &
         MAX-PCT-DCB=100.0000000 MAX-PCT-ENT=10.00000000  &
         MIN-WEIR-LD=4.470981863 MAX-WEIR-LD=117.3721131  &
         MIN-PCT-DCA=.1000000000
     TRAY-SIZE 1 2 5 SIEVE
     INTERNALS CS-2 STAGE1=6 STAGE2=34 P-UPDATE=NO  &
         TRAYTYPE=SIEVE NPASS=1 SYSFAC=1.000000000  &
         OVER-DESIGN=1.000000000 WEIR-HT=50.80000000 <mm>  &
         DC-CLEAR=38.10000000 <mm> DC-WTOP-SIDE=101.0925290 <mm>  &
         DC-WBOT-SIDE=101.0925290 <mm> HOLE-DIAM=12.70000000 <mm>  &
         HOLE-AREA=.1000000000 FLOOD-METH=GLITSCH6  &
         DECK-THICK=0.134 <IN> PCT-FLOOD-FA=80.00000000  &
         AER-PARAM-M=1.000000000 MAX-DC-LOAD=GLITSCH  &
         MAX-ACC-DP=.0250000000 MAX-PCT-DCB=100.0000000  &
         MAX-PCT-ENT=10.00000000 MIN-WEIR-LD=4.470981863  &
         MAX-WEIR-LD=117.3721131 MIN-PCT-DCA=.1000000000
     TRAY-SIZE 2 6 34 SIEVE
     UTILITIES COND-UTIL=REFRIG4 REB-UTIL=LP

 CHANGES WERE MADE TO BLOCK        RADFRAC2 04/17/2025   23:56:11:99 
 BLOCK RADFRAC2 RADFRAC
     SUBOBJECTS INTERNALS = CS-1 CS-2
     PARAM NSTAGE=36 ALGORITHM=STANDARD HYDRAULIC=NO MAXOL=25  &
         DAMPING=NONE
     PARAM2 STATIC-DP=YES OLD-SULZER=NO
     COL-CONFIG CONDENSER=TOTAL CA-CONFIG=INT-1
     FEEDS B1 10
     PRODUCTS B2 36 L / D2 1 L
     P-SPEC 1 213. <kPa>
     COL-SPECS D:F=0.89771980306 MOLE-RR=0.24762249439
     REPORT NOHYDRAULIC
     INTERNALS CS-1 STAGE1=2 STAGE2=26 P-UPDATE=NO  &
         TRAYTYPE=SIEVE NPASS=1 SYSFAC=1.000000000  &
         OVER-DESIGN=1.000000000 WEIR-HT=50.80000000 <mm>  &
         DC-CLEAR=38.10000000 <mm> DC-WTOP-SIDE=149.5966439 <mm>  &
         DC-WBOT-SIDE=149.5966439 <mm> HOLE-DIAM=12.70000000 <mm>  &
         HOLE-AREA=.1000000000 FLOOD-METH=GLITSCH6  &
         DECK-THICK=0.134 <IN> PCT-FLOOD-FA=80.00000000  &
         AER-PARAM-M=1.000000000 MAX-DC-LOAD=GLITSCH  &
         MAX-ACC-DP=.0250000000 MAX-PCT-DCB=100.0000000  &
         MAX-PCT-ENT=10.00000000 MIN-WEIR-LD=4.470981863  &
         MAX-WEIR-LD=117.3721131 MIN-PCT-DCA=.1000000000
     TRAY-SIZE 1 2 26 SIEVE
     INTERNALS CS-2 STAGE1=27 STAGE2=35 P-UPDATE=NO  &
         TRAYTYPE=SIEVE NPASS=1 SYSFAC=1.000000000  &
         OVER-DESIGN=1.000000000 WEIR-HT=50.80000000 <mm>  &
         DC-CLEAR=38.10000000 <mm> DC-WTOP-SIDE=149.6000000 <mm>  &
         DC-WBOT-SIDE=149.6000000 <mm> HOLE-DIAM=12.70000000 <mm>  &
         HOLE-AREA=.1000000000 FLOOD-METH=GLITSCH6  &
         DECK-THICK=0.134 <IN> PCT-FLOOD-FA=80.00000000  &
         AER-PARAM-M=1.000000000 MAX-DC-LOAD=GLITSCH  &
         MAX-ACC-DP=.0250000000 MAX-PCT-DCB=100.0000000  &
         MAX-PCT-ENT=10.00000000 MIN-WEIR-LD=4.470981863  &
         MAX-WEIR-LD=117.3721131 MIN-PCT-DCA=.1000000000
     TRAY-SIZE 2 27 35 SIEVE
     UTILITIES COND-UTIL=REFRIG1 REB-UTIL=LP

 PDF updated                                                                      TIME =     15.99
 THIS COPY OF ASPEN PLUS LICENSED TO JOHNS HOPKINS UNIVERSITY        
 
 


Calculations begin                                                              time     16.26


      UOS BLOCK RADFRAC1 MODEL: RADFRAC                                           TIME =     16.26

       Convergence iterations:
         OL   ML   IL     Err/Tol
          1    1   10     0.11995E+06
          2    1   10      55342.    
          3    1    8      27081.    
          4    1    9      24510.    
          5    1    8      12468.    
          6    1    7      2452.9    
          7    1    4      270.40    
          8    1    4      174.07    
          9    1    4      67.433    
         10    1    5      18.317    
         11    1    4      6.4076    
         12    1    4      2.0867    
         13    1    4     0.63143    

      UOS BLOCK RADFRAC2 MODEL: RADFRAC                                           TIME =     16.27

       Convergence iterations:
         OL   ML   IL     Err/Tol
          1    1    5      6.5416    
          2    1    3     0.62585E-01

      CHECKING PHASE EQUILIBRIUM RESULTS                                          TIME =     16.27

      CHECKING PHASE EQUILIBRIUM RESULTS                                          TIME =     16.27


*** INPUT SPECIFICATION MESSAGES ***

 FLOWSHEET    IS GENERATED BECAUSE OF OTHER CHANGES 04/17/2025   23:56:13:99 
 FLOWSHEET
     BLOCK RADFRAC1 IN=FEED OUT=D1 B1
     BLOCK RADFRAC2 IN=B1 OUT=D2 B2

 CHANGES WERE MADE TO BLOCK        RADFRAC1 04/17/2025   23:56:13:99 
 BLOCK RADFRAC1 RADFRAC
     SUBOBJECTS INTERNALS = CS-1 CS-2
     PARAM NSTAGE=32 ALGORITHM=STANDARD HYDRAULIC=NO MAXOL=25  &
         DAMPING=NONE
     PARAM2 STATIC-DP=YES OLD-SULZER=NO
     COL-CONFIG CONDENSER=TOTAL CA-CONFIG=INT-1
     FEEDS FEED 10
     PRODUCTS B1 32 L / D1 1 L
     P-SPEC 1 525. <kPa>
     COL-SPECS D:F=0.47708583422 MOLE-RR=0.49146035885
     REPORT NOHYDRAULIC
     INTERNALS CS-1 STAGE1=2 STAGE2=5 P-UPDATE=NO TRAYTYPE=SIEVE  &
         NPASS=1 SYSFAC=1.000000000 OVER-DESIGN=1.000000000  &
         WEIR-HT=50.80000000 <mm> DC-CLEAR=38.10000000 <mm>  &
         DC-WTOP-SIDE=127.3634587 <mm> DC-WBOT-SIDE=127.3634587 <mm>  &
         HOLE-DIAM=12.70000000 <mm> HOLE-AREA=.1000000000  &
         FLOOD-METH=GLITSCH6 DECK-THICK=0.134 <IN>  &
         PCT-FLOOD-FA=80.00000000 AER-PARAM-M=1.000000000  &
         MAX-DC-LOAD=GLITSCH MAX-ACC-DP=.0250000000  &
         MAX-PCT-DCB=100.0000000 MAX-PCT-ENT=10.00000000  &
         MIN-WEIR-LD=4.470981863 MAX-WEIR-LD=117.3721131  &
         MIN-PCT-DCA=.1000000000
     TRAY-SIZE 1 2 5 SIEVE
     INTERNALS CS-2 STAGE1=6 STAGE2=31 P-UPDATE=NO  &
         TRAYTYPE=SIEVE NPASS=1 SYSFAC=1.000000000  &
         OVER-DESIGN=1.000000000 WEIR-HT=50.80000000 <mm>  &
         DC-CLEAR=38.10000000 <mm> DC-WTOP-SIDE=127.3767241 <mm>  &
         DC-WBOT-SIDE=127.3767241 <mm> HOLE-DIAM=12.70000000 <mm>  &
         HOLE-AREA=.1000000000 FLOOD-METH=GLITSCH6  &
         DECK-THICK=0.134 <IN> PCT-FLOOD-FA=80.00000000  &
         AER-PARAM-M=1.000000000 MAX-DC-LOAD=GLITSCH  &
         MAX-ACC-DP=.0250000000 MAX-PCT-DCB=100.0000000  &
         MAX-PCT-ENT=10.00000000 MIN-WEIR-LD=4.470981863  &
         MAX-WEIR-LD=117.3721131 MIN-PCT-DCA=.1000000000
     TRAY-SIZE 2 6 31 SIEVE
     UTILITIES COND-UTIL=REFRIG4 REB-UTIL=LP

 CHANGES WERE MADE TO BLOCK        RADFRAC2 04/17/2025   23:56:13:99 
 BLOCK RADFRAC2 RADFRAC
     SUBOBJECTS INTERNALS = CS-1 CS-2
     PARAM NSTAGE=40 ALGORITHM=STANDARD HYDRAULIC=NO MAXOL=25  &
         DAMPING=NONE
     PARAM2 STATIC-DP=YES OLD-SULZER=NO
     COL-CONFIG CONDENSER=TOTAL CA-CONFIG=INT-1
     FEEDS B1 13
     PRODUCTS B2 40 L / D2 1 L
     P-SPEC 1 213. <kPa>
     COL-SPECS D:F=0.89782547611 MOLE-RR=0.75413941866
     REPORT NOHYDRAULIC
     INTERNALS CS-1 STAGE1=2 STAGE2=26 P-UPDATE=NO  &
         TRAYTYPE=SIEVE NPASS=1 SYSFAC=1.000000000  &
         OVER-DESIGN=1.000000000 WEIR-HT=50.80000000 <mm>  &
         DC-CLEAR=38.10000000 <mm> DC-WTOP-SIDE=109.3053579 <mm>  &
         DC-WBOT-SIDE=109.3053579 <mm> HOLE-DIAM=12.70000000 <mm>  &
         HOLE-AREA=.1000000000 FLOOD-METH=GLITSCH6  &
         DECK-THICK=0.134 <IN> PCT-FLOOD-FA=80.00000000  &
         AER-PARAM-M=1.000000000 MAX-DC-LOAD=GLITSCH  &
         MAX-ACC-DP=.0250000000 MAX-PCT-DCB=100.0000000  &
         MAX-PCT-ENT=10.00000000 MIN-WEIR-LD=4.470981863  &
         MAX-WEIR-LD=117.3721131 MIN-PCT-DCA=.1000000000
     TRAY-SIZE 1 2 26 SIEVE
     INTERNALS CS-2 STAGE1=27 STAGE2=39 P-UPDATE=NO  &
         TRAYTYPE=SIEVE NPASS=1 SYSFAC=1.000000000  &
         OVER-DESIGN=1.000000000 WEIR-HT=50.80000000 <mm>  &
         DC-CLEAR=38.10000000 <mm> DC-WTOP-SIDE=102.7265681 <mm>  &
         DC-WBOT-SIDE=102.7265681 <mm> HOLE-DIAM=12.70000000 <mm>  &
         HOLE-AREA=.1000000000 FLOOD-METH=GLITSCH6  &
         DECK-THICK=0.134 <IN> PCT-FLOOD-FA=80.00000000  &
         AER-PARAM-M=1.000000000 MAX-DC-LOAD=GLITSCH  &
         MAX-ACC-DP=.0250000000 MAX-PCT-DCB=100.0000000  &
         MAX-PCT-ENT=10.00000000 MIN-WEIR-LD=4.470981863  &
         MAX-WEIR-LD=117.3721131 MIN-PCT-DCA=.1000000000
     TRAY-SIZE 2 27 39 SIEVE
     UTILITIES COND-UTIL=REFRIG1 REB-UTIL=LP

 PDF updated                                                                      TIME =     17.89
 THIS COPY OF ASPEN PLUS LICENSED TO JOHNS HOPKINS UNIVERSITY        
 
 


Calculations begin                                                              time     18.22


      UOS BLOCK RADFRAC1 MODEL: RADFRAC                                           TIME =     18.22

       Convergence iterations:
         OL   ML   IL     Err/Tol
          1    1    6      19.987    
          2    1    3     0.83814    

      UOS BLOCK RADFRAC2 MODEL: RADFRAC                                           TIME =     18.23

       Convergence iterations:
         OL   ML   IL     Err/Tol
          1    1    3      1.9246    
          2    1    2     0.11451E-01

[...]
         AER-PARAM-M=1.000000000 MAX-DC-LOAD=GLITSCH  &
         MAX-ACC-DP=.0250000000 MAX-PCT-DCB=100.0000000  &
         MAX-PCT-ENT=10.00000000 MIN-WEIR-LD=4.470981863  &
         MAX-WEIR-LD=117.3721131 MIN-PCT-DCA=.1000000000
     TRAY-SIZE 2 27 36 SIEVE
     UTILITIES COND-UTIL=REFRIG1 REB-UTIL=LP

 PDF updated                                                                      TIME =    205.53
 THIS COPY OF ASPEN PLUS LICENSED TO JOHNS HOPKINS UNIVERSITY        


Calculations begin                                                              time    205.77


      UOS BLOCK RADFRAC1 MODEL: RADFRAC                                           TIME =    205.77

       Convergence iterations:
         OL   ML   IL     Err/Tol
          1    1    4      9.2516    
          2    1    2     0.20745    

      UOS BLOCK RADFRAC2 MODEL: RADFRAC                                           TIME =    205.78

       Convergence iterations:
         OL   ML   IL     Err/Tol
          1    1    3     0.53954    

      CHECKING PHASE EQUILIBRIUM RESULTS                                          TIME =    205.78

      CHECKING PHASE EQUILIBRIUM RESULTS                                          TIME =    205.78

 STREAM D1      
        SUBSTREAM MIXED     F =  3.143947048583993E-02  T =   128.866852122302      P =   525000.000000000    
                            H =  -22804735.7719730      V =   0.00000000000000      L =   1.00000000000000    
                            ENTROPY =  -3230.89980313298      DENSITY =   1106.88438164323      MW =   51.1946421894631    
        VINYL-01  2.039434452295791E-02  ACETY-01  1.078001308929638E-03  DICHL-01  1.006551012012850E-17
        OXYGE-01  3.836282722135776E-04  HYDRO-01  4.510597365355591E-03  WATER     1.386457231846504E-04
        NITROGEN  3.651082866625388E-03  CARBONMO  3.968568333279206E-04  METHANE   8.863135932452502E-04

 STREAM B1      
        SUBSTREAM MIXED     F =  3.470333506971578E-02  T =   308.629285559349      P =   525000.000000000    
                            H =   5633178.17664899      V =   0.00000000000000      L =   1.00000000000000    
                            ENTROPY =  -1926.23031852099      DENSITY =   892.663462331317      MW =   63.3240651413595    
        VINYL-01  3.384275603266967E-02  ACETY-01  1.264216183723482E-07  DICHL-01  8.267850694496825E-04
        OXYGE-01  5.959130115329030E-15  HYDRO-01  3.419735017225698E-07  WATER     3.332557125903489E-05
        NITROGEN  1.571821966473448E-14  CARBONMO  2.634559777893427E-15  METHANE   1.192989157477941E-12


*** INPUT SPECIFICATION MESSAGES ***

 CHANGES WERE MADE TO BLOCK        RADFRAC1 04/17/2025   23:59:23:99 
 BLOCK RADFRAC1 RADFRAC
     SUBOBJECTS INTERNALS = CS-1 CS-2
     PARAM NSTAGE=32 ALGORITHM=STANDARD HYDRAULIC=NO MAXOL=25  &
         DAMPING=NONE
     PARAM2 STATIC-DP=YES OLD-SULZER=NO
     COL-CONFIG CONDENSER=TOTAL CA-CONFIG=INT-1
     FEEDS FEED 27
     PRODUCTS B1 32 L / D1 1 L
     P-SPEC 1 525. <kPa>
     COL-SPECS D:F=0.4751731028 MOLE-RR=0.30213173555
     REPORT NOHYDRAULIC
     INTERNALS CS-1 STAGE1=2 STAGE2=5 P-UPDATE=NO TRAYTYPE=SIEVE  &
         NPASS=1 SYSFAC=1.000000000 OVER-DESIGN=1.000000000  &
         WEIR-HT=50.80000000 <mm> DC-CLEAR=38.10000000 <mm>  &
         DC-WTOP-SIDE=84.13665078 <mm> DC-WBOT-SIDE=84.13665078 <mm>  &
         HOLE-DIAM=12.70000000 <mm> HOLE-AREA=.1000000000  &
         FLOOD-METH=GLITSCH6 DECK-THICK=0.134 <IN>  &
         PCT-FLOOD-FA=80.00000000 AER-PARAM-M=1.000000000  &
         MAX-DC-LOAD=GLITSCH MAX-ACC-DP=.0250000000  &
         MAX-PCT-DCB=100.0000000 MAX-PCT-ENT=10.00000000  &
         MIN-WEIR-LD=4.470981863 MAX-WEIR-LD=117.3721131  &
         MIN-PCT-DCA=.1000000000
     TRAY-SIZE 1 2 5 SIEVE
     INTERNALS CS-2 STAGE1=6 STAGE2=31 P-UPDATE=NO  &
         TRAYTYPE=SIEVE NPASS=1 SYSFAC=1.000000000  &
         OVER-DESIGN=1.000000000 WEIR-HT=50.80000000 <mm>  &
         DC-CLEAR=38.10000000 <mm> DC-WTOP-SIDE=100.9899602 <mm>  &
         DC-WBOT-SIDE=100.9899602 <mm> HOLE-DIAM=12.70000000 <mm>  &
         HOLE-AREA=.1000000000 FLOOD-METH=GLITSCH6  &
         DECK-THICK=0.134 <IN> PCT-FLOOD-FA=80.00000000  &
         AER-PARAM-M=1.000000000 MAX-DC-LOAD=GLITSCH  &
         MAX-ACC-DP=.0250000000 MAX-PCT-DCB=100.0000000  &
         MAX-PCT-ENT=10.00000000 MIN-WEIR-LD=4.470981863  &
         MAX-WEIR-LD=117.3721131 MIN-PCT-DCA=.1000000000
     TRAY-SIZE 2 6 31 SIEVE
     UTILITIES COND-UTIL=REFRIG4 REB-UTIL=LP

 CHANGES WERE MADE TO BLOCK        RADFRAC2 04/17/2025   23:59:23:99 
 BLOCK RADFRAC2 RADFRAC
     SUBOBJECTS INTERNALS = CS-1 CS-2
     PARAM NSTAGE=37 ALGORITHM=STANDARD HYDRAULIC=NO MAXOL=25  &
         DAMPING=NONE
     PARAM2 STATIC-DP=YES OLD-SULZER=NO
     COL-CONFIG CONDENSER=TOTAL CA-CONFIG=INT-1
     FEEDS B1 9
     PRODUCTS B2 37 L / D2 1 L
     P-SPEC 1 213. <kPa>
     COL-SPECS D:F=0.89060073672 MOLE-RR=0.17499296706
     REPORT NOHYDRAULIC
     INTERNALS CS-1 STAGE1=2 STAGE2=26 P-UPDATE=NO  &
         TRAYTYPE=SIEVE NPASS=1 SYSFAC=1.000000000  &
         OVER-DESIGN=1.000000000 WEIR-HT=50.80000000 <mm>  &
         DC-CLEAR=38.10000000 <mm> DC-WTOP-SIDE=115.1537626 <mm>  &
         DC-WBOT-SIDE=115.1537626 <mm> HOLE-DIAM=12.70000000 <mm>  &
         HOLE-AREA=.1000000000 FLOOD-METH=GLITSCH6  &
         DECK-THICK=0.134 <IN> PCT-FLOOD-FA=80.00000000  &
         AER-PARAM-M=1.000000000 MAX-DC-LOAD=GLITSCH  &
         MAX-ACC-DP=.0250000000 MAX-PCT-DCB=100.0000000  &
         MAX-PCT-ENT=10.00000000 MIN-WEIR-LD=4.470981863  &
         MAX-WEIR-LD=117.3721131 MIN-PCT-DCA=.1000000000
     TRAY-SIZE 1 2 26 SIEVE
     INTERNALS CS-2 STAGE1=27 STAGE2=36 P-UPDATE=NO  &
         TRAYTYPE=SIEVE NPASS=1 SYSFAC=1.000000000  &
         OVER-DESIGN=1.000000000 WEIR-HT=50.80000000 <mm>  &
         DC-CLEAR=38.10000000 <mm> DC-WTOP-SIDE=115.1538585 <mm>  &
         DC-WBOT-SIDE=115.1538585 <mm> HOLE-DIAM=12.70000000 <mm>  &
         HOLE-AREA=.1000000000 FLOOD-METH=GLITSCH6  &
         DECK-THICK=0.134 <IN> PCT-FLOOD-FA=80.00000000  &
         AER-PARAM-M=1.000000000 MAX-DC-LOAD=GLITSCH  &
         MAX-ACC-DP=.0250000000 MAX-PCT-DCB=100.0000000  &
         MAX-PCT-ENT=10.00000000 MIN-WEIR-LD=4.470981863  &
         MAX-WEIR-LD=117.3721131 MIN-PCT-DCA=.1000000000
     TRAY-SIZE 2 27 36 SIEVE
     UTILITIES COND-UTIL=REFRIG1 REB-UTIL=LP

 PDF updated                                                                      TIME =    207.83
 THIS COPY OF ASPEN PLUS LICENSED TO JOHNS HOPKINS UNIVERSITY        


Calculations begin                                                              time    208.10


      UOS BLOCK RADFRAC1 MODEL: RADFRAC                                           TIME =    208.10

       Convergence iterations:
         OL   ML   IL     Err/Tol
          1    1    5      21.278    
          2    1    3     0.43272    

      UOS BLOCK RADFRAC2 MODEL: RADFRAC                                           TIME =    208.11

       Convergence iterations:
         OL   ML   IL     Err/Tol
          1    1    4      1.9660    
          2    1    2     0.22431E-01

      CHECKING PHASE EQUILIBRIUM RESULTS                                          TIME =    208.11

      CHECKING PHASE EQUILIBRIUM RESULTS                                          TIME =    208.11

 STREAM D1      
        SUBSTREAM MIXED     F =  3.142928214373049E-02  T =   128.873008401929      P =   525000.000000000    
                            H =  -22998764.4890301      V =   0.00000000000000      L =   1.00000000000000    
                            ENTROPY =  -3232.44902484468      DENSITY =   1106.92838444334      MW =   51.1611429391499    
        VINYL-01  2.036292073041094E-02  ACETY-01  1.078120439860136E-03  DICHL-01  7.499857997477378E-24
        OXYGE-01  3.836282727327302E-04  HYDRO-01  4.510921361536980E-03  WATER     1.594380381885656E-04
        NITROGEN  3.651082871525466E-03  CARBONMO  3.968568338614602E-04  METHANE   8.863135956142137E-04

 STREAM B1      
        SUBSTREAM MIXED     F =  3.471352341182521E-02  T =   308.670719255102      P =   525000.000000000    
                            H =   5799261.14900635      V =   0.00000000000000      L =   1.00000000000000    
                            ENTROPY =  -1925.83039665742      DENSITY =   892.494630824492      MW =   63.3508350591099    
        VINYL-01  3.387417981142900E-02  ACETY-01  7.292130169397070E-09  DICHL-01  8.267850684482634E-04
        OXYGE-01  2.322041744579226E-17  HYDRO-01  1.798335500186162E-08  WATER     1.253325645295728E-05
        NITROGEN  4.985135218442100E-17  CARBONMO  8.958814974811432E-18  METHANE   9.733792590712845E-15


*** INPUT SPECIFICATION MESSAGES ***

 FLOWSHEET    IS GENERATED BECAUSE OF OTHER CHANGES 04/17/2025   23:59:25:99 
 FLOWSHEET
     BLOCK RADFRAC1 IN=FEED OUT=D1 B1
     BLOCK RADFRAC2 IN=B1 OUT=D2 B2

 CHANGES WERE MADE TO BLOCK        RADFRAC1 04/17/2025   23:59:25:99 
 BLOCK RADFRAC1 RADFRAC
     SUBOBJECTS INTERNALS = CS-1 CS-2
     PARAM NSTAGE=31 ALGORITHM=STANDARD HYDRAULIC=NO MAXOL=25  &
         DAMPING=NONE
     PARAM2 STATIC-DP=YES OLD-SULZER=NO
     COL-CONFIG CONDENSER=TOTAL CA-CONFIG=INT-1
     FEEDS FEED 28
     PRODUCTS B1 31 L / D1 1 L
     P-SPEC 1 525. <kPa>
     COL-SPECS D:F=0.47757066056 MOLE-RR=0.12162572921
     REPORT NOHYDRAULIC
     INTERNALS CS-1 STAGE1=2 STAGE2=5 P-UPDATE=NO TRAYTYPE=SIEVE  &
         NPASS=1 SYSFAC=1.000000000 OVER-DESIGN=1.000000000  &
         WEIR-HT=50.80000000 <mm> DC-CLEAR=38.10000000 <mm>  &
         DC-WTOP-SIDE=95.28844278 <mm> DC-WBOT-SIDE=95.28844278 <mm>  &
         HOLE-DIAM=12.70000000 <mm> HOLE-AREA=.1000000000  &
         FLOOD-METH=GLITSCH6 DECK-THICK=0.134 <IN>  &
         PCT-FLOOD-FA=80.00000000 AER-PARAM-M=1.000000000  &
         MAX-DC-LOAD=GLITSCH MAX-ACC-DP=.0250000000  &
         MAX-PCT-DCB=100.0000000 MAX-PCT-ENT=10.00000000  &
         MIN-WEIR-LD=4.470981863 MAX-WEIR-LD=117.3721131  &
         MIN-PCT-DCA=.1000000000
     TRAY-SIZE 1 2 5 SIEVE
     INTERNALS CS-2 STAGE1=6 STAGE2=30 P-UPDATE=NO  &
         TRAYTYPE=SIEVE NPASS=1 SYSFAC=1.000000000  &
         OVER-DESIGN=1.000000000 WEIR-HT=50.80000000 <mm>  &
         DC-CLEAR=38.10000000 <mm> DC-WTOP-SIDE=107.1733999 <mm>  &
         DC-WBOT-SIDE=107.1733999 <mm> HOLE-DIAM=12.70000000 <mm>  &
         HOLE-AREA=.1000000000 FLOOD-METH=GLITSCH6  &
         DECK-THICK=0.134 <IN> PCT-FLOOD-FA=80.00000000  &
         AER-PARAM-M=1.000000000 MAX-DC-LOAD=GLITSCH  &
         MAX-ACC-DP=.0250000000 MAX-PCT-DCB=100.0000000  &
         MAX-PCT-ENT=10.00000000 MIN-WEIR-LD=4.470981863  &
         MAX-WEIR-LD=117.3721131 MIN-PCT-DCA=.1000000000
     TRAY-SIZE 2 6 30 SIEVE
     UTILITIES COND-UTIL=REFRIG4 REB-UTIL=LP

 CHANGES WERE MADE TO BLOCK        RADFRAC2 04/17/2025   23:59:25:99 
 BLOCK RADFRAC2 RADFRAC
     SUBOBJECTS INTERNALS = CS-1 CS-2
     PARAM NSTAGE=36 ALGORITHM=STANDARD HYDRAULIC=NO MAXOL=25  &
         DAMPING=NONE
     PARAM2 STATIC-DP=YES OLD-SULZER=NO
     COL-CONFIG CONDENSER=TOTAL CA-CONFIG=INT-1
     FEEDS B1 34
     PRODUCTS B2 36 L / D2 1 L
     P-SPEC 1 213. <kPa>
     COL-SPECS D:F=0.89425545316 MOLE-RR=0.19138261223
     REPORT NOHYDRAULIC
     INTERNALS CS-1 STAGE1=2 STAGE2=26 P-UPDATE=NO  &
         TRAYTYPE=SIEVE NPASS=1 SYSFAC=1.000000000  &
         OVER-DESIGN=1.000000000 WEIR-HT=50.80000000 <mm>  &
         DC-CLEAR=38.10000000 <mm> DC-WTOP-SIDE=105.1156419 <mm>  &
         DC-WBOT-SIDE=105.1156419 <mm> HOLE-DIAM=12.70000000 <mm>  &
         HOLE-AREA=.1000000000 FLOOD-METH=GLITSCH6  &
         DECK-THICK=0.134 <IN> PCT-FLOOD-FA=80.00000000  &
         AER-PARAM-M=1.000000000 MAX-DC-LOAD=GLITSCH  &
         MAX-ACC-DP=.0250000000 MAX-PCT-DCB=100.0000000  &
         MAX-PCT-ENT=10.00000000 MIN-WEIR-LD=4.470981863  &
         MAX-WEIR-LD=117.3721131 MIN-PCT-DCA=.1000000000
     TRAY-SIZE 1 2 26 SIEVE
     INTERNALS CS-2 STAGE1=27 STAGE2=35 P-UPDATE=NO  &
         TRAYTYPE=SIEVE NPASS=1 SYSFAC=1.000000000  &
         OVER-DESIGN=1.000000000 WEIR-HT=50.80000000 <mm>  &
         DC-CLEAR=38.10000000 <mm> DC-WTOP-SIDE=98.23732178 <mm>  &
         DC-WBOT-SIDE=98.23732178 <mm> HOLE-DIAM=12.70000000 <mm>  &
         HOLE-AREA=.1000000000 FLOOD-METH=GLITSCH6  &
         DECK-THICK=0.134 <IN> PCT-FLOOD-FA=80.00000000  &
         AER-PARAM-M=1.000000000 MAX-DC-LOAD=GLITSCH  &
         MAX-ACC-DP=.0250000000 MAX-PCT-DCB=100.0000000  &
         MAX-PCT-ENT=10.00000000 MIN-WEIR-LD=4.470981863  &
         MAX-WEIR-LD=117.3721131 MIN-PCT-DCA=.1000000000
     TRAY-SIZE 2 27 35 SIEVE
     UTILITIES COND-UTIL=REFRIG1 REB-UTIL=LP

 PDF updated                                                                      TIME =    210.26
 THIS COPY OF ASPEN PLUS LICENSED TO JOHNS HOPKINS UNIVERSITY        


Calculations begin                                                              time    210.52


      UOS BLOCK RADFRAC1 MODEL: RADFRAC                                           TIME =    210.52

       Convergence iterations:
         OL   ML   IL     Err/Tol
          1    1    5      21.124    
          2    1    3     0.60663    

      UOS BLOCK RADFRAC2 MODEL: RADFRAC                                           TIME =    210.53

       Convergence iterations:
         OL   ML   IL     Err/Tol
          1    1    3     0.86228    

      CHECKING PHASE EQUILIBRIUM RESULTS                                          TIME =    210.53

      CHECKING PHASE EQUILIBRIUM RESULTS                                          TIME =    210.53

 STREAM D2      
        SUBSTREAM MIXED     F =  3.090094550947949E-02  T =   278.537459281536      P =   213000.000000000    
                            H =   5958966.92798323      V =   0.00000000000000      L =   1.00000000000000    
                            ENTROPY =  -2094.61531838880      DENSITY =   936.436765225759      MW =   62.4430847203139    
        VINYL-01  3.086168404041484E-02  ACETY-01  5.380185360150340E-07  DICHL-01  2.459064178248375E-19
        OXYGE-01  3.613605393469485E-13  HYDRO-01  1.580806027447724E-06  WATER     3.714260824484823E-05
        NITROGEN  1.174007060106697E-12  CARBONMO  1.833856328595963E-13  METHANE   3.453758373081937E-11

 STREAM B2      
        SUBSTREAM MIXED     F =  3.653996705617821E-03  T =   285.696323610881      P =   213000.000000000    
                            H =  -30913713.7324675      V =   0.00000000000000      L =   1.00000000000000    
                            ENTROPY =  -2252.84259916514      DENSITY =   1003.58765228234      MW =   70.7472287945667    
        VINYL-01  2.827113663952958E-03  ACETY-01  5.857998515151926E-12  DICHL-01  8.267850668451944E-04
        OXYGE-01  3.048912531712540E-23  HYDRO-01  1.473268407132008E-11  WATER     9.795422898506481E-08
        NITROGEN  3.593079476774683E-23  CARBONMO  7.870509158584549E-24  METHANE   7.203191074880105E-20


*** INPUT SPECIFICATION MESSAGES ***

 CHANGES WERE MADE TO BLOCK        RADFRAC1 04/17/2025   23:59:28:99 
 BLOCK RADFRAC1 RADFRAC
     SUBOBJECTS INTERNALS = CS-1 CS-2
     PARAM NSTAGE=31 ALGORITHM=STANDARD HYDRAULIC=NO MAXOL=25  &
         DAMPING=NONE
     PARAM2 STATIC-DP=YES OLD-SULZER=NO
     COL-CONFIG CONDENSER=TOTAL CA-CONFIG=INT-1
     FEEDS FEED 22
     PRODUCTS B1 31 L / D1 1 L
     P-SPEC 1 525. <kPa>
     COL-SPECS D:F=0.47532555186 MOLE-RR=0.12354113079
     REPORT NOHYDRAULIC
     INTERNALS CS-1 STAGE1=2 STAGE2=5 P-UPDATE=NO TRAYTYPE=SIEVE  &
         NPASS=1 SYSFAC=1.000000000 OVER-DESIGN=1.000000000  &
         WEIR-HT=50.80000000 <mm> DC-CLEAR=38.10000000 <mm>  &
         DC-WTOP-SIDE=84.40540508 <mm> DC-WBOT-SIDE=84.40540508 <mm>  &
         HOLE-DIAM=12.70000000 <mm> HOLE-AREA=.1000000000  &
         FLOOD-METH=GLITSCH6 DECK-THICK=0.134 <IN>  &
         PCT-FLOOD-FA=80.00000000 AER-PARAM-M=1.000000000  &
         MAX-DC-LOAD=GLITSCH MAX-ACC-DP=.0250000000  &
         MAX-PCT-DCB=100.0000000 MAX-PCT-ENT=10.00000000  &
         MIN-WEIR-LD=4.470981863 MAX-WEIR-LD=117.3721131  &
         MIN-PCT-DCA=.1000000000
     TRAY-SIZE 1 2 5 SIEVE
     INTERNALS CS-2 STAGE1=6 STAGE2=30 P-UPDATE=NO  &
         TRAYTYPE=SIEVE NPASS=1 SYSFAC=1.000000000  &
         OVER-DESIGN=1.000000000 WEIR-HT=50.80000000 <mm>  &
         DC-CLEAR=38.10000000 <mm> DC-WTOP-SIDE=100.8930636 <mm>  &
         DC-WBOT-SIDE=100.8930636 <mm> HOLE-DIAM=12.70000000 <mm>  &
         HOLE-AREA=.1000000000 FLOOD-METH=GLITSCH6  &
         DECK-THICK=0.134 <IN> PCT-FLOOD-FA=80.00000000  &
         AER-PARAM-M=1.000000000 MAX-DC-LOAD=GLITSCH  &
         MAX-ACC-DP=.0250000000 MAX-PCT-DCB=100.0000000  &
         MAX-PCT-ENT=10.00000000 MIN-WEIR-LD=4.470981863  &
         MAX-WEIR-LD=117.3721131 MIN-PCT-DCA=.1000000000
     TRAY-SIZE 2 6 30 SIEVE
     UTILITIES COND-UTIL=REFRIG4 REB-UTIL=LP

 CHANGES WERE MADE TO BLOCK        RADFRAC2 04/17/2025   23:59:28:99 
 BLOCK RADFRAC2 RADFRAC
     SUBOBJECTS INTERNALS = CS-1 CS-2
     PARAM NSTAGE=36 ALGORITHM=STANDARD HYDRAULIC=NO MAXOL=25  &
         DAMPING=NONE
     PARAM2 STATIC-DP=YES OLD-SULZER=NO
     COL-CONFIG CONDENSER=TOTAL CA-CONFIG=INT-1
     FEEDS B1 33
     PRODUCTS B2 36 L / D2 1 L
     P-SPEC 1 213. <kPa>
     COL-SPECS D:F=0.89443909373 MOLE-RR=0.39323148894
     REPORT NOHYDRAULIC
     INTERNALS CS-1 STAGE1=2 STAGE2=26 P-UPDATE=NO  &
         TRAYTYPE=SIEVE NPASS=1 SYSFAC=1.000000000  &
         OVER-DESIGN=1.000000000 WEIR-HT=50.80000000 <mm>  &
         DC-CLEAR=38.10000000 <mm> DC-WTOP-SIDE=105.8384693 <mm>  &
         DC-WBOT-SIDE=105.8384693 <mm> HOLE-DIAM=12.70000000 <mm>  &
         HOLE-AREA=.1000000000 FLOOD-METH=GLITSCH6  &
         DECK-THICK=0.134 <IN> PCT-FLOOD-FA=80.00000000  &
         AER-PARAM-M=1.000000000 MAX-DC-LOAD=GLITSCH  &
         MAX-ACC-DP=.0250000000 MAX-PCT-DCB=100.0000000  &
         MAX-PCT-ENT=10.00000000 MIN-WEIR-LD=4.470981863  &
         MAX-WEIR-LD=117.3721131 MIN-PCT-DCA=.1000000000
     TRAY-SIZE 1 2 26 SIEVE
     INTERNALS CS-2 STAGE1=27 STAGE2=35 P-UPDATE=NO  &
         TRAYTYPE=SIEVE NPASS=1 SYSFAC=1.000000000  &
         OVER-DESIGN=1.000000000 WEIR-HT=50.80000000 <mm>  &
         DC-CLEAR=38.10000000 <mm> DC-WTOP-SIDE=105.8387496 <mm>  &
         DC-WBOT-SIDE=105.8387496 <mm> HOLE-DIAM=12.70000000 <mm>  &
         HOLE-AREA=.1000000000 FLOOD-METH=GLITSCH6  &
         DECK-THICK=0.134 <IN> PCT-FLOOD-FA=80.00000000  &
         AER-PARAM-M=1.000000000 MAX-DC-LOAD=GLITSCH  &
         MAX-ACC-DP=.0250000000 MAX-PCT-DCB=100.0000000  &
         MAX-PCT-ENT=10.00000000 MIN-WEIR-LD=4.470981863  &
         MAX-WEIR-LD=117.3721131 MIN-PCT-DCA=.1000000000
     TRAY-SIZE 2 27 35 SIEVE
     UTILITIES COND-UTIL=REFRIG1 REB-UTIL=LP

 PDF updated                                                                      TIME =    212.83
 THIS COPY OF ASPEN PLUS LICENSED TO JOHNS HOPKINS UNIVERSITY        


Calculations begin                                                              time    213.16


      UOS BLOCK RADFRAC1 MODEL: RADFRAC                                           TIME =    213.16

       Convergence iterations:
         OL   ML   IL     Err/Tol
          1    1    4      5.6384    
          2    1    3     0.42896    

      UOS BLOCK RADFRAC2 MODEL: RADFRAC                                           TIME =    213.17

       Convergence iterations:
         OL   ML   IL     Err/Tol
          1    1    3     0.66301    

      CHECKING PHASE EQUILIBRIUM RESULTS                                          TIME =    213.17

      CHECKING PHASE EQUILIBRIUM RESULTS                                          TIME =    213.17
