
 + + + + + + + + + + + + + + + + + + + + + + + + + + + + + + + + + + + + + + + +
 + + + + + + + + + + + + + + + + + + + + + + + + + + + + + + + + + + + + + + + +
 + +                                                                         + +
 + +                      ASPEN PLUS CALCULATION HISTORY                     + +
 + +                                                                         + +
 + + + + + + + + + + + + + + + + + + + + + + + + + + + + + + + + + + + + + + + +
 + + + + + + + + + + + + + + + + + + + + + + + + + + + + + + + + + + + + + + + +

 ASPEN PLUS IS A TRADEMARK OF           HOTLINE:
 ASPEN TECHNOLOGY, INC.                 U.S.A. 888/996-7100
 781/221-6400                           EUROPE (44) 1189-226555

 PLATFORM: WIN-X64                                       APRIL 17, 2025      
 VERSION: 40.0   Build 359                               THURSDAY    
 INSTALLATION:                                           9:56:42 P.M.        

 THIS COPY OF ASPEN PLUS LICENSED TO JOHNS HOPKINS UNIVERSITY        


      ASPEN PLUS (R) IS A PROPRIETARY PRODUCT OF ASPEN TECHNOLOGY, INC.
      (ASPENTECH), AND MAY BE USED ONLY UNDER AGREEMENT WITH ASPENTECH.
      RESTRICTED RIGHTS LEGEND:  USE, REPRODUCTION, OR DISCLOSURE BY THE
      U.S. GOVERNMENT IS SUBJECT TO RESTRICTIONS SET FORTH IN 
      (i) FAR 52.227-14, Alt. III, (ii) FAR 52.227-19, (iii) DFARS 
      252.227-7013(c)(1)(ii), or (iv) THE ACCOMPANYING LICENSE AGREEMENT,
      AS APPLICABLE. FOR PURPOSES OF THE FAR, THIS SOFTWARE SHALL BE DEEMED
      TO BE "UNPUBLISHED" AND LICENSED WITH DISCLOSURE PROHIBITIONS.
      CONTRACTOR/SUBCONTRACTOR: ASPEN TECHNOLOGY, INC. 20 CROSBY DRIVE,
      BEDFORD, MA 01730.
 *** INPUT SUMMARY ***

 >>CURRENT RUN

   ORIGINAL RUN                           APRIL 17, 2025      
   9:56:42 P.M.                           THURSDAY    
   INPUT FILE: _5638drl.inm
   RUN ID : _5638drl
          1    ;
          2    ;Input file created by Aspen Plus Rel. 40.0 at 21:56:41 Thu Apr 17, 2025
          3    ;Directory C:\Users\wsangpa1\OneDrive - Johns Hopkins\ASPEN\Aspen\Vinyl_Distillation  Runid VINYL CHLORIDE DISTILLATION
          4    ;
          5
          6
          7    DYNAMICS
          8        DYNAMICS RESULTS=ON
          9
         10    IN-UNITS MET PRESSURE=bar TEMPERATURE=C DELTA-T=C PDROP=bar  &
         11            INVERSE-PRES='1/bar' SHORT-LENGTH=mm
         12
         13    DEF-STREAMS CONVEN ALL
         14
         15    MODEL-OPTION
         16
         17    DATABANKS 'APV140 PURE40' / 'APV140 AQUEOUS' / 'APV140 SOLIDS' &
         18             / 'APV140 INORGANIC' / 'APESV140 AP-EOS' /  &
         19            'NISTV140 NIST-TRC' / 'APESV140 ACIDGAS' /  &
         20            'APESV140 BIOFEED' / 'APESV140 FERMENT' /  &
         21            'APESV140 FLARE' / 'APV140 ASPENPCD' / 'APV140 BIODIESEL' &
         22             / 'APV140 COMBUST' / 'APV140 ELECPURE' /  &
         23            'APV140 EOS-LIT' / 'APV140 ETHYLENE' / 'APV140 HYSYS' /  &
         24            'APV140 INITIATO' / 'APV140 NRTL-SAC' / 'APV140 PC-SAFT' &
         25             / 'APV140 POLYMER' / 'APV140 POLYPCSF' /  &
         26            'APV140 PURE25' / 'APV140 PURE26' / 'APV140 PURE27' /  &
         27            'APV140 PURE28' / 'APV140 PURE32' / 'APV140 PURE35' /  &
         28            'APV140 PURE36' / 'APV140 PURE37' / 'APV140 PURE38' /  &
         29            'APV140 PURE39' / 'APV140 SEGMENT' / 'FACTV140 FACTPCD'
         30
         31    PROP-SOURCES 'APV140 PURE40' / 'APV140 AQUEOUS' /  &
         32            'APV140 SOLIDS' / 'APV140 INORGANIC' / 'APESV140 AP-EOS' &
         33             / 'NISTV140 NIST-TRC' / 'APESV140 ACIDGAS' /  &
         34            'APESV140 BIOFEED' / 'APESV140 FERMENT' /  &
         35            'APESV140 FLARE' / 'APV140 ASPENPCD' / 'APV140 BIODIESEL' &
         36             / 'APV140 COMBUST' / 'APV140 ELECPURE' /  &
         37            'APV140 EOS-LIT' / 'APV140 ETHYLENE' / 'APV140 HYSYS' /  &
         38            'APV140 INITIATO' / 'APV140 NRTL-SAC' / 'APV140 PC-SAFT' &
         39             / 'APV140 POLYMER' / 'APV140 POLYPCSF' /  &
         40            'APV140 PURE25' / 'APV140 PURE26' / 'APV140 PURE27' /  &
         41            'APV140 PURE28' / 'APV140 PURE32' / 'APV140 PURE35' /  &
         42            'APV140 PURE36' / 'APV140 PURE37' / 'APV140 PURE38' /  &
         43            'APV140 PURE39' / 'APV140 SEGMENT' / 'FACTV140 FACTPCD'
         44
         45    COMPONENTS
         46        VINYL-01 C2H3CL /
         47        ACETY-01 C2H2 /
         48        DICHL-01 C2H4CL2-1 /
         49        OXYGE-01 O2 /
         50        HYDRO-01 HCL /
         51        WATER H2O /
         52        NITROGEN N2 /
         53        CARBONMO CO /
         54        METHANE CH4
         55
         56    SOLVE
         57        RUN-MODE MODE=SIM
         58
         59    FLOWSHEET
         60        BLOCK RADFRAC1 IN=FEED OUT=D1 B1
         61        BLOCK RADFRAC2 IN=B1 OUT=D2 B2
         62
         63    PROPERTIES NRTL
         64
         65    PROP-DATA PCES-1
         66        IN-UNITS MET PRESSURE=bar TEMPERATURE=C DELTA-T=C PDROP=bar  &
         67            INVERSE-PRES='1/bar' SHORT-LENGTH=mm
         68        PROP-LIST DHVLB / VB / RKTZRA / VLSTD
         69        PVAL DICHL-01 6750.889295 / 88.65938200 / .2692624250 /  &
         70            83.75050270
         71
         72    PROP-DATA DHVLWT-1
         73        IN-UNITS MET PRESSURE=bar TEMPERATURE=C DELTA-T=C PDROP=bar  &
         74            INVERSE-PRES='1/bar' SHORT-LENGTH=mm
         75        PROP-LIST DHVLWT
         76        PVAL DICHL-01 6750.889295 57.20700000 .3800000000 0.0  &
         77            -141.0072000
         78
         79    PROP-DATA KLDIP-1
         80        IN-UNITS MET PRESSURE=bar TEMPERATURE=C DELTA-T=C PDROP=bar  &
         81            INVERSE-PRES='1/bar' SHORT-LENGTH=mm
         82        PROP-LIST KLDIP
         83        PVAL DICHL-01 .1017396118 6.34424108E-5 -4.1249461E-6  &
         84            2.17593050E-8 -4.501867E-11 57.20700000 243.5904000
         85
         86    PROP-DATA MULAND-1
         87        IN-UNITS MET PRESSURE=bar TEMPERATURE=C DELTA-T=C PDROP=bar  &
         88            INVERSE-PRES='1/bar' SHORT-LENGTH=mm
         89        PROP-LIST MULAND
         90        PVAL DICHL-01 80.92147478 -3642.542350 -12.26059350  &
         91            57.20700000 243.5904000
         92
         93    PROP-DATA SIGDIP-1
         94        IN-UNITS MET PRESSURE=bar TEMPERATURE=C DELTA-T=C PDROP=bar  &
         95            INVERSE-PRES='1/bar' SHORT-LENGTH=mm
         96        PROP-LIST SIGDIP
         97        PVAL DICHL-01 68.72045330 1.222222220 -1.348626E-10  &
         98            1.4957495E-10 -6.024811E-11 57.20700000 238.3708000
         99
        100    PROP-DATA NRTL-1
        101        IN-UNITS MET PRESSURE=bar TEMPERATURE=C DELTA-T=C PDROP=bar  &
        102            INVERSE-PRES='1/bar' SHORT-LENGTH=mm
        103        PROP-LIST NRTL
        104        BPVAL VINYL-01 HYDRO-01 .3421000000 -119.7519000 .3000000000  &
        105            0.0 0.0 0.0 -80.70000000 -80.70000000
        106        BPVAL HYDRO-01 VINYL-01 .1251000000 13.81580000 .3000000000  &
        107            0.0 0.0 0.0 -80.70000000 -80.70000000
        108        BPVAL VINYL-01 WATER -7.166300000 3581.032000 .3000000000  &
        109            0.0 0.0 0.0 15.00000000 92.00000000
        110        BPVAL WATER VINYL-01 4.137300000 253.3814000 .3000000000  &
        111            0.0 0.0 0.0 15.00000000 92.00000000
        112        BPVAL DICHL-01 WATER 161.6302000 -4790.826200 .2000000000  &
        113            0.0 -24.93690000 0.0 0.0 50.00000000
        114        BPVAL WATER DICHL-01 128.7456000 -6025.360400 .2000000000  &
        115            0.0 -18.11790000 0.0 0.0 50.00000000
        116
        117    STREAM FEED
        118        SUBSTREAM MIXED TEMP=15.0227 PRES=540. <kPa>  &
        119            MOLE-FLOW=238.1141
        120        MOLE-FRAC VINYL-01 0.82 / ACETY-01 0.0163 / DICHL-01  &
        121            0.0125 / OXYGE-01 0.0058 / HYDRO-01 0.0682 / WATER  &
        122            0.0026 / NITROGEN 0.0552 / CARBONMO 0.006 / METHANE  &
        123            0.0134
        124
        125    BLOCK RADFRAC1 RADFRAC
        126        SUBOBJECTS INTERNALS = CS-1 CS-2
        127        PARAM NSTAGE=35 ALGORITHM=STANDARD HYDRAULIC=NO MAXOL=25  &
        128            DAMPING=NONE
        129        PARAM2 STATIC-DP=YES OLD-SULZER=NO
        130        COL-CONFIG CONDENSER=TOTAL CA-CONFIG=INT-1
        131        FEEDS FEED 13
        132        PRODUCTS B1 35 L / D1 1 L
        133        P-SPEC 1 525. <kPa>
        134        COL-SPECS D:F=0.47942952586 MOLE-RR=0.71818065063
        135        REPORT NOHYDRAULIC
        136        INTERNALS CS-1 STAGE1=2 STAGE2=5 P-UPDATE=NO TRAYTYPE=SIEVE  &
        137            NPASS=1 SYSFAC=1.000000000 OVER-DESIGN=1.000000000  &
        138            WEIR-HT=50.80000000 <mm> DC-CLEAR=38.10000000 <mm>  &
        139            DC-WTOP-SIDE=141.1844920 <mm> DC-WBOT-SIDE=141.1844920 <mm>  &
        140            HOLE-DIAM=12.70000000 <mm> HOLE-AREA=.1000000000  &
        141            FLOOD-METH=GLITSCH6 DECK-THICK=0.134 <IN>  &
        142            PCT-FLOOD-FA=80.00000000 AER-PARAM-M=1.000000000  &
        143            MAX-DC-LOAD=GLITSCH MAX-ACC-DP=.0250000000  &
        144            MAX-PCT-DCB=100.0000000 MAX-PCT-ENT=10.00000000  &
        145            MIN-WEIR-LD=4.470981863 MAX-WEIR-LD=117.3721131  &
        146            MIN-PCT-DCA=.1000000000
        147        TRAY-SIZE 1 2 5 SIEVE
        148        INTERNALS CS-2 STAGE1=6 STAGE2=34 P-UPDATE=NO  &
        149            TRAYTYPE=SIEVE NPASS=1 SYSFAC=1.000000000  &
        150            OVER-DESIGN=1.000000000 WEIR-HT=50.80000000 <mm>  &
        151            DC-CLEAR=38.10000000 <mm> DC-WTOP-SIDE=138.4000000 <mm>  &
        152            DC-WBOT-SIDE=138.4000000 <mm> HOLE-DIAM=12.70000000 <mm>  &
        153            HOLE-AREA=.1000000000 FLOOD-METH=GLITSCH6  &
        154            DECK-THICK=0.134 <IN> PCT-FLOOD-FA=80.00000000  &
        155            AER-PARAM-M=1.000000000 MAX-DC-LOAD=GLITSCH  &
        156            MAX-ACC-DP=.0250000000 MAX-PCT-DCB=100.0000000  &
        157            MAX-PCT-ENT=10.00000000 MIN-WEIR-LD=4.470981863  &
        158            MAX-WEIR-LD=117.3721131 MIN-PCT-DCA=.1000000000
        159        TRAY-SIZE 2 6 34 SIEVE
        160        UTILITIES COND-UTIL=REFRIG4 REB-UTIL=LP
        161
        162    BLOCK RADFRAC2 RADFRAC
        163        SUBOBJECTS INTERNALS = CS-1 CS-2
        164        PARAM NSTAGE=41 ALGORITHM=STANDARD HYDRAULIC=NO MAXOL=25  &
        165            DAMPING=NONE
        166        PARAM2 STATIC-DP=YES OLD-SULZER=NO
        167        COL-CONFIG CONDENSER=TOTAL CA-CONFIG=INT-1
        168        FEEDS B1 33
        169        PRODUCTS B2 41 L / D2 1 L
        170        P-SPEC 1 213. <kPa>
        171        COL-SPECS D:F=0.90763544862 MOLE-RR=0.77647097559
        172        REPORT NOHYDRAULIC
        173        INTERNALS CS-1 STAGE1=2 STAGE2=26 P-UPDATE=NO  &
        174            TRAYTYPE=SIEVE NPASS=1 SYSFAC=1.000000000  &
        175            OVER-DESIGN=1.000000000 WEIR-HT=50.80000000 <mm>  &
        176            DC-CLEAR=38.10000000 <mm> DC-WTOP-SIDE=131.3579200 <mm>  &
        177            DC-WBOT-SIDE=131.3579200 <mm> HOLE-DIAM=12.70000000 <mm>  &
        178            HOLE-AREA=.1000000000 FLOOD-METH=GLITSCH6  &
        179            DECK-THICK=0.134 <IN> PCT-FLOOD-FA=80.00000000  &
        180            AER-PARAM-M=1.000000000 MAX-DC-LOAD=GLITSCH  &
        181            MAX-ACC-DP=.0250000000 MAX-PCT-DCB=100.0000000  &
        182            MAX-PCT-ENT=10.00000000 MIN-WEIR-LD=4.470981863  &
        183            MAX-WEIR-LD=117.3721131 MIN-PCT-DCA=.1000000000
        184        TRAY-SIZE 1 2 26 SIEVE
        185        INTERNALS CS-2 STAGE1=27 STAGE2=40 P-UPDATE=NO  &
        186            TRAYTYPE=SIEVE NPASS=1 SYSFAC=1.000000000  &
        187            OVER-DESIGN=1.000000000 WEIR-HT=50.80000000 <mm>  &
        188            DC-CLEAR=38.10000000 <mm> DC-WTOP-SIDE=126.2597047 <mm>  &
        189            DC-WBOT-SIDE=126.2597047 <mm> HOLE-DIAM=12.70000000 <mm>  &
        190            HOLE-AREA=.1000000000 FLOOD-METH=GLITSCH6  &
        191            DECK-THICK=0.134 <IN> PCT-FLOOD-FA=80.00000000  &
        192            AER-PARAM-M=1.000000000 MAX-DC-LOAD=GLITSCH  &
        193            MAX-ACC-DP=.0250000000 MAX-PCT-DCB=100.0000000  &
        194            MAX-PCT-ENT=10.00000000 MIN-WEIR-LD=4.470981863  &
        195            MAX-WEIR-LD=117.3721131 MIN-PCT-DCA=.1000000000
        196        TRAY-SIZE 2 27 40 SIEVE
        197        UTILITIES COND-UTIL=REFRIG1 REB-UTIL=LP
        198
        199    UTILITY HP GENERAL
        200        DESCRIPTION  &
        201            'High Pressure Steam, Inlet Temp=250 C, Outlet Temp=249 C, Pres=572 psia'
        202        COST ENERGY-PRICE=2.5E-06 <$/kJ>
        203        PARAM UTILITY-TYPE=STEAM TIN=250. TOUT=249. VFRAC=1.  &
        204            VFR-OUT=0. CALOPT=FLASH MIN-TAPP=10. CALCCO2=YES  &
        205            FACTORSOURCE="US-Title40-Part98" FUELSOURCE="Natural_gas"  &
        206            CO2FACTOR=2.10554172E-7 EFFICIENCY=0.85  &
        207            HTC=0.0216 <GJ/hr-sqm-C>
        208
        209    UTILITY LP GENERAL
        210        DESCRIPTION  &
        211            'Low Pressure Steam, Inlet Temp=125 C, Outlet Temp=124 C'
        212        COST ENERGY-PRICE=1.9E-06 <$/kJ>
        213        PARAM UTILITY-TYPE=STEAM TIN=125. TOUT=124. VFRAC=1.  &
        214            VFR-OUT=0. CALOPT=FLASH MIN-TAPP=10. CALCCO2=YES  &
        215            FACTORSOURCE="US-Title40-Part98" FUELSOURCE="Natural_gas"  &
        216            CO2FACTOR=2.10554172E-7 EFFICIENCY=0.85  &
        217            HTC=0.0216 <GJ/hr-sqm-C>
        218
        219    UTILITY MP GENERAL
        220        DESCRIPTION  &
        221            'Medium Pressure Steam, Inlet Temp=175 C, Outlet Temp=174 C, Pres=127 psia'
        222        COST ENERGY-PRICE=2.2E-06 <$/kJ>
        223        PARAM UTILITY-TYPE=STEAM TIN=175. TOUT=174. VFRAC=1.  &
        224            VFR-OUT=0. CALOPT=FLASH MIN-TAPP=10. CALCCO2=YES  &
        225            FACTORSOURCE="US-Title40-Part98" FUELSOURCE="Natural_gas"  &
        226            CO2FACTOR=2.10554172E-7 EFFICIENCY=0.85  &
        227            HTC=0.0216 <GJ/hr-sqm-C>
        228
        229    UTILITY REFRIG1 GENERAL
        230        DESCRIPTION  &
        231            'Refrigerant 1, Inlet Temp=-25 C, Outlet Temp=-24 C'
        232        COST ENERGY-PRICE=2.74E-06 <$/kJ>
        233        PARAM UTILITY-TYPE=REFRIGERATIO COOLING-VALU=-4. <kJ/kg>  &
        234            TIN=-25. TOUT=-24. MIN-TAPP=3. CALCCO2=YES FACTORSOURCE= &
        235            "US-Title40-Part98" FUELSOURCE="Natural_gas"  &
        236            CO2FACTOR=2.10554172E-7 EFFICIENCY=1.  &
        237            HTC=0.00468 <GJ/hr-sqm-C>
        238
        239    UTILITY REFRIG4 GENERAL
        240        DESCRIPTION  &
        241            'Very Low Temperature, Inlet Temp=-270 C, Outlet Temp=-269 C'
        242        COST ENERGY-PRICE=8.9E-06 <$/kJ>
        243        PARAM UTILITY-TYPE=REFRIGERATIO COOLING-VALU=-1.341 <kJ/kg>  &
        244            TIN=-270. TOUT=-269. MIN-TAPP=2. CALCCO2=YES  &
        245            FACTORSOURCE="US-Title40-Part98" FUELSOURCE="Natural_gas"  &
        246            CO2FACTOR=2.10554172E-7 EFFICIENCY=1.  &
        247            HTC=0.00468 <GJ/hr-sqm-C>
        248
        249    UTILITY WATER GENERAL
        250        DESCRIPTION 'Cooling Water, Inlet Temp=20 C, Outlet Temp=25 C'
        251        COST ENERGY-PRICE=2.12E-07 <$/kJ>
        252        PARAM UTILITY-TYPE=WATER PRES=1. <atm> PRES-OUT=1. <atm>  &
        253            TIN=20. TOUT=25. CALOPT=FLASH MIN-TAPP=5.  &
        254            HTC=0.0135 <GJ/hr-sqm-C>
        255
        256    EO-CONV-OPTI
        257
        258    STREAM-REPOR MOLEFLOW
        259
        260    PROPERTY-REP PCES NOPROP-DATA NODFMS
        261    ;
        262    ;
        263    ;
        264    ;
        265    ;
 *** INPUT TRANSLATOR MESSAGES ***

  *** THIS RUN USES THE PROPERTIES ENTERPRISE DATABASE ***
      SQLLOCALDB.APESV140 : (DATAVERSION - 40.0.0.13)                         
      SQLLOCALDB.APV140 : (DATAVERSION - 40.0.0.13)                           
      SQLLOCALDB.FACTV140 : (DATAVERSION - 40.0.0.12)                         
      SQLLOCALDB.NISTV140 : (DATAVERSION - 40.0.0.12)                         
 
 

 PDF updated                                                                      TIME =      2.03

 *** CALCULATION TRACE ***


 *** FLOWSHEET ANALYSIS MESSAGES ***

 FLOWSHEET CONNECTIVITY BY STREAMS       

   STREAM     SOURCE     DEST           STREAM     SOURCE     DEST
   FEED       ----       RADFRAC1       D1         RADFRAC1   ----    
   B1         RADFRAC1   RADFRAC2       D2         RADFRAC2   ----    
   B2         RADFRAC2   ----                                         

 FLOWSHEET CONNECTIVITY BY BLOCKS        

   BLOCK        INLETS                         OUTLETS
   RADFRAC1     FEED                           D1 B1                       
   RADFRAC2     B1                             D2 B2                       

      COMPUTATION ORDER FOR THE FLOWSHEET IS:
      REFRIG1 LP REFRIG4 RADFRAC1 RADFRAC2 HP MP WATER 

Calculations begin                                                              time      1.25


 SIMULATION CALCULATIONS BEGIN                                                    TIME =      1.25

      UTILITY BLOCK REFRIG1  MODEL: GENERAL                                       TIME =      1.25
      HEATING/COOLING VALUE    -4.000000D+03 J/KG

      UTILITY BLOCK LP       MODEL: GENERAL                                       TIME =      1.25
      KODE = 5  NTRIAL =   2  T = 398.1500  P =  232179.      V =  1.00000      Q =  0.00000    
      KODE = 5  NTRIAL =   2  T = 397.1500  P =  225121.      V =  0.00000      Q =  0.00000    
      HEATING/COOLING VALUE     2.191879D+06 J/KG

      UTILITY BLOCK REFRIG4  MODEL: GENERAL                                       TIME =      1.25
      HEATING/COOLING VALUE    -1.341000D+03 J/KG

      ENTHALPY CALCULATION FOR INLET STREAM FEED OF BLOCK RADFRAC1                TIME =      1.25
      KODE = 2  NTRIAL =   4  T = 288.1727  P =  540000.      V = 0.293865      Q =  0.00000    

      UOS BLOCK RADFRAC1 MODEL: RADFRAC                                           TIME =      1.25

       Convergence iterations:
         OL   ML   IL     Err/Tol
          1    1    4      1627.4    
          2    1    4      5289.7    
          3    1    8      7612.5    
          4    1   10      9614.1    
          5    1   10      30110.    
          6    1   10      5106.9    
          7    1    7      3388.5    
          8    1    3      552.23    
          9    1    4      97.242    
         10    1    5      58.364    
         11    1    4      18.710    
         12    1    4      4.2572    
         13    1    4      1.2753    
         14    1    4     0.42224    

      UOS BLOCK RADFRAC2 MODEL: RADFRAC                                           TIME =      1.26

       Convergence iterations:
         OL   ML   IL     Err/Tol
          1    1    2     0.71050    
          2    1    2     0.13578E-01

      UTILITY BLOCK HP       MODEL: GENERAL                                       TIME =      1.27
      KODE = 5  NTRIAL =   5  T = 523.1500  P = 3.975372E+06  V =  1.00000      Q =  0.00000    
      KODE = 5  NTRIAL =   5  T = 522.1500  P = 3.908667E+06  V =  0.00000      Q =  0.00000    
      HEATING/COOLING VALUE     1.719324D+06 J/KG

      UTILITY BLOCK MP       MODEL: GENERAL                                       TIME =      1.27
      KODE = 5  NTRIAL =   3  T = 448.1500  P =  892540.      V =  1.00000      Q =  0.00000    
      KODE = 5  NTRIAL =   3  T = 447.1500  P =  871696.      V =  0.00000      Q =  0.00000    
      HEATING/COOLING VALUE     2.034752D+06 J/KG

      UTILITY BLOCK WATER    MODEL: GENERAL                                       TIME =      1.27
      KODE = 2  NTRIAL =   1  T = 293.1500  P =  101325.      V =  0.00000      Q =  0.00000    
      KODE = 3  NTRIAL =   4  T = 373.1407  P =  101325.      V =  0.00000      Q = 6.026911E+06
      KODE = 2  NTRIAL =   1  T = 298.1500  P =  101325.      V =  0.00000      Q =  0.00000    
      KODE = 3  NTRIAL =   4  T = 373.1407  P =  101325.      V =  0.00000      Q = 5.650828E+06
      HEATING/COOLING VALUE    -2.087576D+04 J/KG

      CHECKING PHASE EQUILIBRIUM RESULTS                                          TIME =      1.27

      CHECKING PHASE EQUILIBRIUM RESULTS                                          TIME =      1.27

 STREAM D2      
        SUBSTREAM MIXED     F =  3.125169618722516E-02  T =   278.651355547544      P =   213000.000000000    
                            H =   6292321.36293994      V =   0.00000000000000      L =   1.00000000000000    
                            ENTROPY =  -2093.65071260209      DENSITY =   936.073959085913      MW =   62.4985194951636    
        VINYL-01  3.125169583255238E-02  ACETY-01   0.00000000000000      DICHL-01  2.096844324514767E-32
        OXYGE-01   0.00000000000000      HYDRO-01   0.00000000000000      WATER     3.546727815444998E-10
        NITROGEN   0.00000000000000      CARBONMO   0.00000000000000      METHANE    0.00000000000000    

 STREAM B2      
        SUBSTREAM MIXED     F =  3.180295461780266E-03  T =   286.942087936162      P =   213000.000000000    
                            H =  -36421438.1089904      V =   0.00000000000000      L =   1.00000000000000    
                            ENTROPY =  -2277.08842292938      DENSITY =   1012.59874427492      MW =   71.9772345012041    
        VINYL-01  2.353510394054743E-03  ACETY-01   0.00000000000000      DICHL-01  8.267850677252058E-04
        OXYGE-01   0.00000000000000      HYDRO-01   0.00000000000000      WATER     3.178882948119170E-16
        NITROGEN   0.00000000000000      CARBONMO   0.00000000000000      METHANE    0.00000000000000    


*** INPUT SPECIFICATION MESSAGES ***

 FLOWSHEET    IS GENERATED BECAUSE OF OTHER CHANGES 04/17/2025   21:56:47:99 
 FLOWSHEET
     BLOCK RADFRAC1 IN=FEED OUT=D1 B1
     BLOCK RADFRAC2 IN=B1 OUT=D2 B2

 CHANGES WERE MADE TO BLOCK        RADFRAC1 04/17/2025   21:56:47:99 
 BLOCK RADFRAC1 RADFRAC
     SUBOBJECTS INTERNALS = CS-1 CS-2
     PARAM NSTAGE=32 ALGORITHM=STANDARD HYDRAULIC=NO MAXOL=25  &
         DAMPING=NONE
     PARAM2 STATIC-DP=YES OLD-SULZER=NO
     COL-CONFIG CONDENSER=TOTAL CA-CONFIG=INT-1
     FEEDS FEED 6
     PRODUCTS B1 32 L / D1 1 L
     P-SPEC 1 525. <kPa>
     COL-SPECS D:F=0.46637684232 MOLE-RR=0.25206583009
     REPORT NOHYDRAULIC
     INTERNALS CS-1 STAGE1=2 STAGE2=5 P-UPDATE=NO TRAYTYPE=SIEVE  &
         NPASS=1 SYSFAC=1.000000000 OVER-DESIGN=1.000000000  &
         WEIR-HT=50.80000000 <mm> DC-CLEAR=38.10000000 <mm>  &
         DC-WTOP-SIDE=118.4693311 <mm> DC-WBOT-SIDE=118.4693311 <mm>  &
         HOLE-DIAM=12.70000000 <mm> HOLE-AREA=.1000000000  &
         FLOOD-METH=GLITSCH6 DECK-THICK=0.134 <IN>  &
         PCT-FLOOD-FA=80.00000000 AER-PARAM-M=1.000000000  &
         MAX-DC-LOAD=GLITSCH MAX-ACC-DP=.0250000000  &
         MAX-PCT-DCB=100.0000000 MAX-PCT-ENT=10.00000000  &
         MIN-WEIR-LD=4.470981863 MAX-WEIR-LD=117.3721131  &
         MIN-PCT-DCA=.1000000000
     TRAY-SIZE 1 2 5 SIEVE
     INTERNALS CS-2 STAGE1=6 STAGE2=31 P-UPDATE=NO  &
         TRAYTYPE=SIEVE NPASS=1 SYSFAC=1.000000000  &
         OVER-DESIGN=1.000000000 WEIR-HT=50.80000000 <mm>  &
         DC-CLEAR=38.10000000 <mm> DC-WTOP-SIDE=120.4134744 <mm>  &
         DC-WBOT-SIDE=120.4134744 <mm> HOLE-DIAM=12.70000000 <mm>  &
         HOLE-AREA=.1000000000 FLOOD-METH=GLITSCH6  &
         DECK-THICK=0.134 <IN> PCT-FLOOD-FA=80.00000000  &
         AER-PARAM-M=1.000000000 MAX-DC-LOAD=GLITSCH  &
         MAX-ACC-DP=.0250000000 MAX-PCT-DCB=100.0000000  &
         MAX-PCT-ENT=10.00000000 MIN-WEIR-LD=4.470981863  &
         MAX-WEIR-LD=117.3721131 MIN-PCT-DCA=.1000000000
     TRAY-SIZE 2 6 31 SIEVE
     UTILITIES COND-UTIL=REFRIG4 REB-UTIL=LP

 CHANGES WERE MADE TO BLOCK        RADFRAC2 04/17/2025   21:56:47:99 
 BLOCK RADFRAC2 RADFRAC
     SUBOBJECTS INTERNALS = CS-1 CS-2
     PARAM NSTAGE=36 ALGORITHM=STANDARD HYDRAULIC=NO MAXOL=25  &
         DAMPING=NONE
     PARAM2 STATIC-DP=YES OLD-SULZER=NO
     COL-CONFIG CONDENSER=TOTAL CA-CONFIG=INT-1
     FEEDS B1 4
     PRODUCTS B2 36 L / D2 1 L
     P-SPEC 1 213. <kPa>
     COL-SPECS D:F=0.90090037325 MOLE-RR=0.74434920577
     REPORT NOHYDRAULIC
     INTERNALS CS-1 STAGE1=2 STAGE2=26 P-UPDATE=NO  &
         TRAYTYPE=SIEVE NPASS=1 SYSFAC=1.000000000  &
         OVER-DESIGN=1.000000000 WEIR-HT=50.80000000 <mm>  &
         DC-CLEAR=38.10000000 <mm> DC-WTOP-SIDE=131.2077700 <mm>  &
         DC-WBOT-SIDE=131.2077700 <mm> HOLE-DIAM=12.70000000 <mm>  &
         HOLE-AREA=.1000000000 FLOOD-METH=GLITSCH6  &
         DECK-THICK=0.134 <IN> PCT-FLOOD-FA=80.00000000  &
         AER-PARAM-M=1.000000000 MAX-DC-LOAD=GLITSCH  &
         MAX-ACC-DP=.0250000000 MAX-PCT-DCB=100.0000000  &
         MAX-PCT-ENT=10.00000000 MIN-WEIR-LD=4.470981863  &
         MAX-WEIR-LD=117.3721131 MIN-PCT-DCA=.1000000000
     TRAY-SIZE 1 2 26 SIEVE
     INTERNALS CS-2 STAGE1=27 STAGE2=35 P-UPDATE=NO  &
         TRAYTYPE=SIEVE NPASS=1 SYSFAC=1.000000000  &
         OVER-DESIGN=1.000000000 WEIR-HT=50.80000000 <mm>  &
         DC-CLEAR=38.10000000 <mm> DC-WTOP-SIDE=131.2077675 <mm>  &
         DC-WBOT-SIDE=131.2077675 <mm> HOLE-DIAM=12.70000000 <mm>  &
         HOLE-AREA=.1000000000 FLOOD-METH=GLITSCH6  &
         DECK-THICK=0.134 <IN> PCT-FLOOD-FA=80.00000000  &
         AER-PARAM-M=1.000000000 MAX-DC-LOAD=GLITSCH  &
         MAX-ACC-DP=.0250000000 MAX-PCT-DCB=100.0000000  &
         MAX-PCT-ENT=10.00000000 MIN-WEIR-LD=4.470981863  &
         MAX-WEIR-LD=117.3721131 MIN-PCT-DCA=.1000000000
     TRAY-SIZE 2 27 35 SIEVE
     UTILITIES COND-UTIL=REFRIG1 REB-UTIL=LP

 PDF updated                                                                      TIME =      3.07
 THIS COPY OF ASPEN PLUS LICENSED TO JOHNS HOPKINS UNIVERSITY        
 
 


Calculations begin                                                              time      3.33


      UOS BLOCK RADFRAC1 MODEL: RADFRAC                                           TIME =      3.33

       Convergence iterations:
         OL   ML   IL     Err/Tol
          1    1    5      20.218    
          2    1    3      1.3658    
          3    1    2     0.35387    

      UOS BLOCK RADFRAC2 MODEL: RADFRAC                                           TIME =      3.33

       Convergence iterations:
         OL   ML   IL     Err/Tol
          1    1    4      2.8210    
          2    1    2     0.58499E-01

      CHECKING PHASE EQUILIBRIUM RESULTS                                          TIME =      3.33

      CHECKING PHASE EQUILIBRIUM RESULTS                                          TIME =      3.33


*** INPUT SPECIFICATION MESSAGES ***

 FLOWSHEET    IS GENERATED BECAUSE OF OTHER CHANGES 04/17/2025   21:56:49:99 
 FLOWSHEET
     BLOCK RADFRAC1 IN=FEED OUT=D1 B1
     BLOCK RADFRAC2 IN=B1 OUT=D2 B2

 CHANGES WERE MADE TO BLOCK        RADFRAC1 04/17/2025   21:56:49:99 
 BLOCK RADFRAC1 RADFRAC
     SUBOBJECTS INTERNALS = CS-1 CS-2
     PARAM NSTAGE=31 ALGORITHM=STANDARD HYDRAULIC=NO MAXOL=25  &
         DAMPING=NONE
     PARAM2 STATIC-DP=YES OLD-SULZER=NO
     COL-CONFIG CONDENSER=TOTAL CA-CONFIG=INT-1
     FEEDS FEED 9
     PRODUCTS B1 31 L / D1 1 L
     P-SPEC 1 525. <kPa>
     COL-SPECS D:F=0.46689727186 MOLE-RR=1.3649235927
     REPORT NOHYDRAULIC
     INTERNALS CS-1 STAGE1=2 STAGE2=5 P-UPDATE=NO TRAYTYPE=SIEVE  &
         NPASS=1 SYSFAC=1.000000000 OVER-DESIGN=1.000000000  &
         WEIR-HT=50.80000000 <mm> DC-CLEAR=38.10000000 <mm>  &
         DC-WTOP-SIDE=91.24163896 <mm> DC-WBOT-SIDE=91.24163896 <mm>  &
         HOLE-DIAM=12.70000000 <mm> HOLE-AREA=.1000000000  &
         FLOOD-METH=GLITSCH6 DECK-THICK=0.134 <IN>  &
         PCT-FLOOD-FA=80.00000000 AER-PARAM-M=1.000000000  &
         MAX-DC-LOAD=GLITSCH MAX-ACC-DP=.0250000000  &
         MAX-PCT-DCB=100.0000000 MAX-PCT-ENT=10.00000000  &
         MIN-WEIR-LD=4.470981863 MAX-WEIR-LD=117.3721131  &
         MIN-PCT-DCA=.1000000000
     TRAY-SIZE 1 2 5 SIEVE
     INTERNALS CS-2 STAGE1=6 STAGE2=30 P-UPDATE=NO  &
         TRAYTYPE=SIEVE NPASS=1 SYSFAC=1.000000000  &
         OVER-DESIGN=1.000000000 WEIR-HT=50.80000000 <mm>  &
         DC-CLEAR=38.10000000 <mm> DC-WTOP-SIDE=108.6979821 <mm>  &
         DC-WBOT-SIDE=108.6979821 <mm> HOLE-DIAM=12.70000000 <mm>  &
         HOLE-AREA=.1000000000 FLOOD-METH=GLITSCH6  &
         DECK-THICK=0.134 <IN> PCT-FLOOD-FA=80.00000000  &
         AER-PARAM-M=1.000000000 MAX-DC-LOAD=GLITSCH  &
         MAX-ACC-DP=.0250000000 MAX-PCT-DCB=100.0000000  &
         MAX-PCT-ENT=10.00000000 MIN-WEIR-LD=4.470981863  &
         MAX-WEIR-LD=117.3721131 MIN-PCT-DCA=.1000000000
     TRAY-SIZE 2 6 30 SIEVE
     UTILITIES COND-UTIL=REFRIG4 REB-UTIL=LP

 CHANGES WERE MADE TO BLOCK        RADFRAC2 04/17/2025   21:56:49:99 
 BLOCK RADFRAC2 RADFRAC
     SUBOBJECTS INTERNALS = CS-1 CS-2
     PARAM NSTAGE=38 ALGORITHM=STANDARD HYDRAULIC=NO MAXOL=25  &
         DAMPING=NONE
     PARAM2 STATIC-DP=YES OLD-SULZER=NO
     COL-CONFIG CONDENSER=TOTAL CA-CONFIG=INT-1
     FEEDS B1 9
     PRODUCTS B2 38 L / D2 1 L
     P-SPEC 1 213. <kPa>
     COL-SPECS D:F=0.90279722174 MOLE-RR=0.36857004443
     REPORT NOHYDRAULIC
     INTERNALS CS-1 STAGE1=2 STAGE2=26 P-UPDATE=NO  &
         TRAYTYPE=SIEVE NPASS=1 SYSFAC=1.000000000  &
         OVER-DESIGN=1.000000000 WEIR-HT=50.80000000 <mm>  &
         DC-CLEAR=38.10000000 <mm> DC-WTOP-SIDE=131.1000000 <mm>  &
         DC-WBOT-SIDE=131.1000000 <mm> HOLE-DIAM=12.70000000 <mm>  &
         HOLE-AREA=.1000000000 FLOOD-METH=GLITSCH6  &
         DECK-THICK=0.134 <IN> PCT-FLOOD-FA=80.00000000  &
         AER-PARAM-M=1.000000000 MAX-DC-LOAD=GLITSCH  &
         MAX-ACC-DP=.0250000000 MAX-PCT-DCB=100.0000000  &
         MAX-PCT-ENT=10.00000000 MIN-WEIR-LD=4.470981863  &
         MAX-WEIR-LD=117.3721131 MIN-PCT-DCA=.1000000000
     TRAY-SIZE 1 2 26 SIEVE
     INTERNALS CS-2 STAGE1=27 STAGE2=37 P-UPDATE=NO  &
         TRAYTYPE=SIEVE NPASS=1 SYSFAC=1.000000000  &
         OVER-DESIGN=1.000000000 WEIR-HT=50.80000000 <mm>  &
         DC-CLEAR=38.10000000 <mm> DC-WTOP-SIDE=125.9599195 <mm>  &
         DC-WBOT-SIDE=125.9599195 <mm> HOLE-DIAM=12.70000000 <mm>  &
         HOLE-AREA=.1000000000 FLOOD-METH=GLITSCH6  &
         DECK-THICK=0.134 <IN> PCT-FLOOD-FA=80.00000000  &
         AER-PARAM-M=1.000000000 MAX-DC-LOAD=GLITSCH  &
         MAX-ACC-DP=.0250000000 MAX-PCT-DCB=100.0000000  &
         MAX-PCT-ENT=10.00000000 MIN-WEIR-LD=4.470981863  &
         MAX-WEIR-LD=117.3721131 MIN-PCT-DCA=.1000000000
     TRAY-SIZE 2 27 37 SIEVE
     UTILITIES COND-UTIL=REFRIG1 REB-UTIL=LP

 PDF updated                                                                      TIME =      4.87
 THIS COPY OF ASPEN PLUS LICENSED TO JOHNS HOPKINS UNIVERSITY        
 
 


Calculations begin                                                              time      5.15


      UOS BLOCK RADFRAC1 MODEL: RADFRAC                                           TIME =      5.15

       Convergence iterations:
         OL   ML   IL     Err/Tol
          1    1   10      46622.    
          2    1    8      3286.0    
          3    1    4      55828.    
          4    1    7      4955.3    
          5    1    5      844.65    
          6    1    4      482.11    
          7    1    4      206.16    
          8    1    4      67.264    
          9    1    4      5.3079    
         10    1    4      1.2477    
         11    1    3     0.48675    

      UOS BLOCK RADFRAC2 MODEL: RADFRAC                                           TIME =      5.16

       Convergence iterations:
         OL   ML   IL     Err/Tol
          1    1    3      1.4575    
          2    1    2     0.13116E-01

      CHECKING PHASE EQUILIBRIUM RESULTS                                          TIME =      5.16

      CHECKING PHASE EQUILIBRIUM RESULTS                                          TIME =      5.16


*** INPUT SPECIFICATION MESSAGES ***

 FLOWSHEET    IS GENERATED BECAUSE OF OTHER CHANGES 04/17/2025   21:56:51:99 
 FLOWSHEET
     BLOCK RADFRAC1 IN=FEED OUT=D1 B1
     BLOCK RADFRAC2 IN=B1 OUT=D2 B2

 CHANGES WERE MADE TO BLOCK        RADFRAC1 04/17/2025   21:56:51:99 
 BLOCK RADFRAC1 RADFRAC
     SUBOBJECTS INTERNALS = CS-1 CS-2
     PARAM NSTAGE=31 ALGORITHM=STANDARD HYDRAULIC=NO MAXOL=25  &
         DAMPING=NONE
     PARAM2 STATIC-DP=YES OLD-SULZER=NO
     COL-CONFIG CONDENSER=TOTAL CA-CONFIG=INT-1
     FEEDS FEED 19
     PRODUCTS B1 31 L / D1 1 L
     P-SPEC 1 525. <kPa>
     COL-SPECS D:F=0.46897818002 MOLE-RR=0.75757343508
     REPORT NOHYDRAULIC
     INTERNALS CS-1 STAGE1=2 STAGE2=5 P-UPDATE=NO TRAYTYPE=SIEVE  &
         NPASS=1 SYSFAC=1.000000000 OVER-DESIGN=1.000000000  &
         WEIR-HT=50.80000000 <mm> DC-CLEAR=38.10000000 <mm>  &
         DC-WTOP-SIDE=145.5847708 <mm> DC-WBOT-SIDE=145.5847708 <mm>  &
         HOLE-DIAM=12.70000000 <mm> HOLE-AREA=.1000000000  &
         FLOOD-METH=GLITSCH6 DECK-THICK=0.134 <IN>  &
         PCT-FLOOD-FA=80.00000000 AER-PARAM-M=1.000000000  &
         MAX-DC-LOAD=GLITSCH MAX-ACC-DP=.0250000000  &
         MAX-PCT-DCB=100.0000000 MAX-PCT-ENT=10.00000000  &
         MIN-WEIR-LD=4.470981863 MAX-WEIR-LD=117.3721131  &
         MIN-PCT-DCA=.1000000000
     TRAY-SIZE 1 2 5 SIEVE
     INTERNALS CS-2 STAGE1=6 STAGE2=30 P-UPDATE=NO  &
         TRAYTYPE=SIEVE NPASS=1 SYSFAC=1.000000000  &
         OVER-DESIGN=1.000000000 WEIR-HT=50.80000000 <mm>  &
         DC-CLEAR=38.10000000 <mm> DC-WTOP-SIDE=145.5826283 <mm>  &
         DC-WBOT-SIDE=145.5826283 <mm> HOLE-DIAM=12.70000000 <mm>  &
         HOLE-AREA=.1000000000 FLOOD-METH=GLITSCH6  &
         DECK-THICK=0.134 <IN> PCT-FLOOD-FA=80.00000000  &
         AER-PARAM-M=1.000000000 MAX-DC-LOAD=GLITSCH  &
         MAX-ACC-DP=.0250000000 MAX-PCT-DCB=100.0000000  &
         MAX-PCT-ENT=10.00000000 MIN-WEIR-LD=4.470981863  &
         MAX-WEIR-LD=117.3721131 MIN-PCT-DCA=.1000000000
     TRAY-SIZE 2 6 30 SIEVE
     UTILITIES COND-UTIL=REFRIG4 REB-UTIL=LP

 CHANGES WERE MADE TO BLOCK        RADFRAC2 04/17/2025   21:56:51:99 
 BLOCK RADFRAC2 RADFRAC
     SUBOBJECTS INTERNALS = CS-1 CS-2
     PARAM NSTAGE=40 ALGORITHM=STANDARD HYDRAULIC=NO MAXOL=25  &
         DAMPING=NONE
     PARAM2 STATIC-DP=YES OLD-SULZER=NO
     COL-CONFIG CONDENSER=TOTAL CA-CONFIG=INT-1
     FEEDS B1 32
     PRODUCTS B2 40 L / D2 1 L
     P-SPEC 1 213. <kPa>
     COL-SPECS D:F=0.90630431993 MOLE-RR=1.3450595968
     REPORT NOHYDRAULIC
     INTERNALS CS-1 STAGE1=2 STAGE2=26 P-UPDATE=NO  &
         TRAYTYPE=SIEVE NPASS=1 SYSFAC=1.000000000  &
         OVER-DESIGN=1.000000000 WEIR-HT=50.80000000 <mm>  &
         DC-CLEAR=38.10000000 <mm> DC-WTOP-SIDE=115.5359457 <mm>  &
         DC-WBOT-SIDE=115.5359457 <mm> HOLE-DIAM=12.70000000 <mm>  &
         HOLE-AREA=.1000000000 FLOOD-METH=GLITSCH6  &
         DECK-THICK=0.134 <IN> PCT-FLOOD-FA=80.00000000  &
         AER-PARAM-M=1.000000000 MAX-DC-LOAD=GLITSCH  &
         MAX-ACC-DP=.0250000000 MAX-PCT-DCB=100.0000000  &
         MAX-PCT-ENT=10.00000000 MIN-WEIR-LD=4.470981863  &
         MAX-WEIR-LD=117.3721131 MIN-PCT-DCA=.1000000000
     TRAY-SIZE 1 2 26 SIEVE
     INTERNALS CS-2 STAGE1=27 STAGE2=39 P-UPDATE=NO  &
         TRAYTYPE=SIEVE NPASS=1 SYSFAC=1.000000000  &
         OVER-DESIGN=1.000000000 WEIR-HT=50.80000000 <mm>  &
         DC-CLEAR=38.10000000 <mm> DC-WTOP-SIDE=109.3888211 <mm>  &
         DC-WBOT-SIDE=109.3888211 <mm> HOLE-DIAM=12.70000000 <mm>  &
         HOLE-AREA=.1000000000 FLOOD-METH=GLITSCH6  &
         DECK-THICK=0.134 <IN> PCT-FLOOD-FA=80.00000000  &
         AER-PARAM-M=1.000000000 MAX-DC-LOAD=GLITSCH  &
         MAX-ACC-DP=.0250000000 MAX-PCT-DCB=100.0000000  &
         MAX-PCT-ENT=10.00000000 MIN-WEIR-LD=4.470981863  &
         MAX-WEIR-LD=117.3721131 MIN-PCT-DCA=.1000000000
     TRAY-SIZE 2 27 39 SIEVE
     UTILITIES COND-UTIL=REFRIG1 REB-UTIL=LP

 PDF updated                                                                      TIME =      6.91
 THIS COPY OF ASPEN PLUS LICENSED TO JOHNS HOPKINS UNIVERSITY        
 
 


Calculations begin                                                              time      7.22


      UOS BLOCK RADFRAC1 MODEL: RADFRAC                                           TIME =      7.22

       Convergence iterations:
         OL   ML   IL     Err/Tol
          1    1   10      34506.    
          2    1   10      31594.    
          3    1   10      5938.9    
          4    1   10      50724.    
          5    1   10      13573.    
          6    1    6      21387.    
          7    1    5      6748.0    
          8    1    5      1935.0    
          9    1    4      376.05    
         10    1    4      250.74    
         11    1    3      175.28    
         12    1    3      133.37    
         13    1    3      61.898    
         14    1    4      32.047    
         15    1    3      13.030    
         16    1    3      4.4817    
         17    1    3      2.0379    
         18    1    3      1.0264    
         19    1    3     0.41450    

      UOS BLOCK RADFRAC2 MODEL: RADFRAC                                           TIME =      7.23

       Convergence iterations:
         OL   ML   IL     Err/Tol
          1    1    3      1.3973    
          2    1    2     0.24328E-01

      CHECKING PHASE EQUILIBRIUM RESULTS                                          TIME =      7.23

      CHECKING PHASE EQUILIBRIUM RESULTS                                          TIME =      7.23

 STREAM D2      
        SUBSTREAM MIXED     F =  3.183237403610924E-02  T =   278.651161236803      P =   213000.000000000    
                            H =   6291658.16952524      V =   0.00000000000000      L =   1.00000000000000    
                            ENTROPY =  -2093.65062080123      DENSITY =   936.074636867453      MW =   62.4984115837467    
        VINYL-01  3.183229645302908E-02  ACETY-01  1.475282295920494E-15  DICHL-01  3.583106966231637E-35
        OXYGE-01   0.00000000000000      HYDRO-01  2.010381271720246E-15  WATER     7.758307668472411E-08
        NITROGEN   0.00000000000000      CARBONMO   0.00000000000000      METHANE    0.00000000000000    

 STREAM B2      
        SUBSTREAM MIXED     F =  3.290898948585176E-03  T =   286.614373978405      P =   213000.000000000    
                            H =  -34992327.4832859      V =   0.00000000000000      L =   1.00000000000000    
                            ENTROPY =  -2270.84017244435      DENSITY =   1010.28539015678      MW =   71.6586653560658    
        VINYL-01  2.464113880499594E-03  ACETY-01  9.009386409664638E-28  DICHL-01  8.267850680401242E-04
        OXYGE-01   0.00000000000000      HYDRO-01  8.021601250885854E-28  WATER     4.545741358479810E-14
        NITROGEN   0.00000000000000      CARBONMO   0.00000000000000      METHANE    0.00000000000000    


*** INPUT SPECIFICATION MESSAGES ***

 FLOWSHEET    IS GENERATED BECAUSE OF OTHER CHANGES 04/17/2025   21:56:53:99 
 FLOWSHEET
     BLOCK RADFRAC1 IN=FEED OUT=D1 B1
     BLOCK RADFRAC2 IN=B1 OUT=D2 B2

 CHANGES WERE MADE TO BLOCK        RADFRAC1 04/17/2025   21:56:53:99 
 BLOCK RADFRAC1 RADFRAC
     SUBOBJECTS INTERNALS = CS-1 CS-2
     PARAM NSTAGE=34 ALGORITHM=STANDARD HYDRAULIC=NO MAXOL=25  &
         DAMPING=NONE
     PARAM2 STATIC-DP=YES OLD-SULZER=NO
     COL-CONFIG CONDENSER=TOTAL CA-CONFIG=INT-1
     FEEDS FEED 7
     PRODUCTS B1 34 L / D1 1 L
     P-SPEC 1 525. <kPa>
     COL-SPECS D:F=0.47784456316 MOLE-RR=0.2983960725
     REPORT NOHYDRAULIC
     INTERNALS CS-1 STAGE1=2 STAGE2=5 P-UPDATE=NO TRAYTYPE=SIEVE  &
         NPASS=1 SYSFAC=1.000000000 OVER-DESIGN=1.000000000  &
         WEIR-HT=50.80000000 <mm> DC-CLEAR=38.10000000 <mm>  &
         DC-WTOP-SIDE=118.7964152 <mm> DC-WBOT-SIDE=118.7964152 <mm>  &
         HOLE-DIAM=12.70000000 <mm> HOLE-AREA=.1000000000  &
         FLOOD-METH=GLITSCH6 DECK-THICK=0.134 <IN>  &
         PCT-FLOOD-FA=80.00000000 AER-PARAM-M=1.000000000  &
         MAX-DC-LOAD=GLITSCH MAX-ACC-DP=.0250000000  &
         MAX-PCT-DCB=100.0000000 MAX-PCT-ENT=10.00000000  &
         MIN-WEIR-LD=4.470981863 MAX-WEIR-LD=117.3721131  &
         MIN-PCT-DCA=.1000000000
     TRAY-SIZE 1 2 5 SIEVE
     INTERNALS CS-2 STAGE1=6 STAGE2=33 P-UPDATE=NO  &
         TRAYTYPE=SIEVE NPASS=1 SYSFAC=1.000000000  &
         OVER-DESIGN=1.000000000 WEIR-HT=50.80000000 <mm>  &
         DC-CLEAR=38.10000000 <mm> DC-WTOP-SIDE=121.1966200 <mm>  &
         DC-WBOT-SIDE=121.1966200 <mm> HOLE-DIAM=12.70000000 <mm>  &
         HOLE-AREA=.1000000000 FLOOD-METH=GLITSCH6  &
         DECK-THICK=0.134 <IN> PCT-FLOOD-FA=80.00000000  &
         AER-PARAM-M=1.000000000 MAX-DC-LOAD=GLITSCH  &
         MAX-ACC-DP=.0250000000 MAX-PCT-DCB=100.0000000  &
         MAX-PCT-ENT=10.00000000 MIN-WEIR-LD=4.470981863  &
         MAX-WEIR-LD=117.3721131 MIN-PCT-DCA=.1000000000
     TRAY-SIZE 2 6 33 SIEVE
     UTILITIES COND-UTIL=REFRIG4 REB-UTIL=LP

 CHANGES WERE MADE TO BLOCK        RADFRAC2 04/17/2025   21:56:53:99 
 BLOCK RADFRAC2 RADFRAC
     SUBOBJECTS INTERNALS = CS-1 CS-2
     PARAM NSTAGE=37 ALGORITHM=STANDARD HYDRAULIC=NO MAXOL=25  &
         DAMPING=NONE
     PARAM2 STATIC-DP=YES OLD-SULZER=NO
     COL-CONFIG CONDENSER=TOTAL CA-CONFIG=INT-1
     FEEDS B1 9
     PRODUCTS B2 37 L / D2 1 L
     P-SPEC 1 213. <kPa>
     COL-SPECS D:F=0.89663652989 MOLE-RR=0.95120954607
     REPORT NOHYDRAULIC
     INTERNALS CS-1 STAGE1=2 STAGE2=26 P-UPDATE=NO  &
         TRAYTYPE=SIEVE NPASS=1 SYSFAC=1.000000000  &
         OVER-DESIGN=1.000000000 WEIR-HT=50.80000000 <mm>  &
         DC-CLEAR=38.10000000 <mm> DC-WTOP-SIDE=153.1945337 <mm>  &
         DC-WBOT-SIDE=153.1945337 <mm> HOLE-DIAM=12.70000000 <mm>  &
         HOLE-AREA=.1000000000 FLOOD-METH=GLITSCH6  &
         DECK-THICK=0.134 <IN> PCT-FLOOD-FA=80.00000000  &
         AER-PARAM-M=1.000000000 MAX-DC-LOAD=GLITSCH  &
         MAX-ACC-DP=.0250000000 MAX-PCT-DCB=100.0000000  &
         MAX-PCT-ENT=10.00000000 MIN-WEIR-LD=4.470981863  &
         MAX-WEIR-LD=117.3721131 MIN-PCT-DCA=.1000000000
     TRAY-SIZE 1 2 26 SIEVE
     INTERNALS CS-2 STAGE1=27 STAGE2=36 P-UPDATE=NO  &
         TRAYTYPE=SIEVE NPASS=1 SYSFAC=1.000000000  &
         OVER-DESIGN=1.000000000 WEIR-HT=50.80000000 <mm>  &
         DC-CLEAR=38.10000000 <mm> DC-WTOP-SIDE=153.1945292 <mm>  &
         DC-WBOT-SIDE=153.1945292 <mm> HOLE-DIAM=12.70000000 <mm>  &
         HOLE-AREA=.1000000000 FLOOD-METH=GLITSCH6  &
         DECK-THICK=0.134 <IN> PCT-FLOOD-FA=80.00000000  &
         AER-PARAM-M=1.000000000 MAX-DC-LOAD=GLITSCH  &
         MAX-ACC-DP=.0250000000 MAX-PCT-DCB=100.0000000  &
         MAX-PCT-ENT=10.00000000 MIN-WEIR-LD=4.470981863  &
         MAX-WEIR-LD=117.3721131 MIN-PCT-DCA=.1000000000
     TRAY-SIZE 2 27 36 SIEVE
     UTILITIES COND-UTIL=REFRIG1 REB-UTIL=LP

 PDF updated                                                                      TIME =      8.85
 THIS COPY OF ASPEN PLUS LICENSED TO JOHNS HOPKINS UNIVERSITY        
 
 


Calculations begin                                                              time      9.17


      UOS BLOCK RADFRAC1 MODEL: RADFRAC                                           TIME =      9.17

       Convergence iterations:
         OL   ML   IL     Err/Tol
          1    1    5      18.253    
          2    1    3     0.86910    

      UOS BLOCK RADFRAC2 MODEL: RADFRAC                                           TIME =      9.17

       Convergence iterations:
         OL   ML   IL     Err/Tol
          1    1    4      2.1782    
          2    1    2     0.46850E-01

      CHECKING PHASE EQUILIBRIUM RESULTS                                          TIME =      9.18

      CHECKING PHASE EQUILIBRIUM RESULTS                                          TIME =      9.18

 STREAM D1      
        SUBSTREAM MIXED     F =  3.160598002687136E-02  T =   129.009511856032      P =   525000.000000000    
                            H =  -23031174.0646938      V =   0.00000000000000      L =   1.00000000000000    
                            ENTROPY =  -3232.91422710706      DENSITY =   1107.07318880226      MW =   51.2068999193420    
        VINYL-01  2.052707829056637E-02  ACETY-01  1.078127731158403E-03  DICHL-01  4.296380089105600E-09
        OXYGE-01  3.836282724367325E-04  HYDRO-01  4.510939341411234E-03  WATER     1.719487977150444E-04
        NITROGEN  3.651082868708213E-03  CARBONMO  3.968568335552404E-04  METHANE   8.863135949400371E-04

 STREAM B1      
        SUBSTREAM MIXED     F =  3.453682552868434E-02  T =   308.698020462296      P =   525000.000000000    
                            H =   5878048.69836464      V =   0.00000000000000      L =   1.00000000000000    
                            ENTROPY =  -1925.75069001081      DENSITY =   892.435820475353      MW =   63.3713261979371    
        VINYL-01  3.371002225921751E-02  ACETY-01  2.400475818780038E-25  DICHL-01  8.267807726412883E-04
        OXYGE-01  3.230472119020595E-59  HYDRO-01  9.525345360533222E-26  WATER     2.249682553576877E-08
        NITROGEN  7.112019809003243E-61  CARBONMO  6.016264343943639E-61  METHANE   1.561549852304493E-49


*** INPUT SPECIFICATION MESSAGES ***

 FLOWSHEET    IS GENERATED BECAUSE OF OTHER CHANGES 04/17/2025   21:56:55:99 
 FLOWSHEET
     BLOCK RADFRAC1 IN=FEED OUT=D1 B1
     BLOCK RADFRAC2 IN=B1 OUT=D2 B2

 CHANGES WERE MADE TO BLOCK        RADFRAC1 04/17/2025   21:56:55:99 
 BLOCK RADFRAC1 RADFRAC
     SUBOBJECTS INTERNALS = CS-1 CS-2
     PARAM NSTAGE=34 ALGORITHM=STANDARD HYDRAULIC=NO MAXOL=25  &
         DAMPING=NONE
     PARAM2 STATIC-DP=YES OLD-SULZER=NO
     COL-CONFIG CONDENSER=TOTAL CA-CONFIG=INT-1
     FEEDS FEED 7
     PRODUCTS B1 34 L / D1 1 L
     P-SPEC 1 525. <kPa>
     COL-SPECS D:F=0.47784456316 MOLE-RR=0.29480983208
     REPORT NOHYDRAULIC
     INTERNALS CS-1 STAGE1=2 STAGE2=5 P-UPDATE=NO TRAYTYPE=SIEVE  &
         NPASS=1 SYSFAC=1.000000000 OVER-DESIGN=1.000000000  &
         WEIR-HT=50.80000000 <mm> DC-CLEAR=38.10000000 <mm>  &
         DC-WTOP-SIDE=95.38512868 <mm> DC-WBOT-SIDE=95.38512868 <mm>  &
         HOLE-DIAM=12.70000000 <mm> HOLE-AREA=.1000000000  &
         FLOOD-METH=GLITSCH6 DECK-THICK=0.134 <IN>  &
         PCT-FLOOD-FA=80.00000000 AER-PARAM-M=1.000000000  &
         MAX-DC-LOAD=GLITSCH MAX-ACC-DP=.0250000000  &
         MAX-PCT-DCB=100.0000000 MAX-PCT-ENT=10.00000000  &
         MIN-WEIR-LD=4.470981863 MAX-WEIR-LD=117.3721131  &
         MIN-PCT-DCA=.1000000000
     TRAY-SIZE 1 2 5 SIEVE
     INTERNALS CS-2 STAGE1=6 STAGE2=33 P-UPDATE=NO  &
         TRAYTYPE=SIEVE NPASS=1 SYSFAC=1.000000000  &
         OVER-DESIGN=1.000000000 WEIR-HT=50.80000000 <mm>  &
         DC-CLEAR=38.10000000 <mm> DC-WTOP-SIDE=107.1577016 <mm>  &
         DC-WBOT-SIDE=107.1577016 <mm> HOLE-DIAM=12.70000000 <mm>  &
         HOLE-AREA=.1000000000 FLOOD-METH=GLITSCH6  &
         DECK-THICK=0.134 <IN> PCT-FLOOD-FA=80.00000000  &
         AER-PARAM-M=1.000000000 MAX-DC-LOAD=GLITSCH  &
         MAX-ACC-DP=.0250000000 MAX-PCT-DCB=100.0000000  &
         MAX-PCT-ENT=10.00000000 MIN-WEIR-LD=4.470981863  &
         MAX-WEIR-LD=117.3721131 MIN-PCT-DCA=.1000000000
     TRAY-SIZE 2 6 33 SIEVE
     UTILITIES COND-UTIL=REFRIG4 REB-UTIL=LP

 CHANGES WERE MADE TO BLOCK        RADFRAC2 04/17/2025   21:56:55:99 
 BLOCK RADFRAC2 RADFRAC
     SUBOBJECTS INTERNALS = CS-1 CS-2
     PARAM NSTAGE=38 ALGORITHM=STANDARD HYDRAULIC=NO MAXOL=25  &
         DAMPING=NONE
     PARAM2 STATIC-DP=YES OLD-SULZER=NO
     COL-CONFIG CONDENSER=TOTAL CA-CONFIG=INT-1
     FEEDS B1 9
     PRODUCTS B2 38 L / D2 1 L
     P-SPEC 1 213. <kPa>
     COL-SPECS D:F=0.89663652989 MOLE-RR=0.95120954607
     REPORT NOHYDRAULIC
     INTERNALS CS-1 STAGE1=2 STAGE2=26 P-UPDATE=NO  &
         TRAYTYPE=SIEVE NPASS=1 SYSFAC=1.000000000  &
         OVER-DESIGN=1.000000000 WEIR-HT=50.80000000 <mm>  &
         DC-CLEAR=38.10000000 <mm> DC-WTOP-SIDE=137.1772292 <mm>  &
         DC-WBOT-SIDE=137.1772292 <mm> HOLE-DIAM=12.70000000 <mm>  &
         HOLE-AREA=.1000000000 FLOOD-METH=GLITSCH6  &
         DECK-THICK=0.134 <IN> PCT-FLOOD-FA=80.00000000  &
         AER-PARAM-M=1.000000000 MAX-DC-LOAD=GLITSCH  &
         MAX-ACC-DP=.0250000000 MAX-PCT-DCB=100.0000000  &
         MAX-PCT-ENT=10.00000000 MIN-WEIR-LD=4.470981863  &
         MAX-WEIR-LD=117.3721131 MIN-PCT-DCA=.1000000000
     TRAY-SIZE 1 2 26 SIEVE
     INTERNALS CS-2 STAGE1=27 STAGE2=37 P-UPDATE=NO  &
         TRAYTYPE=SIEVE NPASS=1 SYSFAC=1.000000000  &
         OVER-DESIGN=1.000000000 WEIR-HT=50.80000000 <mm>  &
         DC-CLEAR=38.10000000 <mm> DC-WTOP-SIDE=132.4572259 <mm>  &
         DC-WBOT-SIDE=132.4572259 <mm> HOLE-DIAM=12.70000000 <mm>  &
         HOLE-AREA=.1000000000 FLOOD-METH=GLITSCH6  &
         DECK-THICK=0.134 <IN> PCT-FLOOD-FA=80.00000000  &
         AER-PARAM-M=1.000000000 MAX-DC-LOAD=GLITSCH  &
         MAX-ACC-DP=.0250000000 MAX-PCT-DCB=100.0000000  &
         MAX-PCT-ENT=10.00000000 MIN-WEIR-LD=4.470981863  &
         MAX-WEIR-LD=117.3721131 MIN-PCT-DCA=.1000000000
     TRAY-SIZE 2 27 37 SIEVE
     UTILITIES COND-UTIL=REFRIG1 REB-UTIL=LP

 PDF updated                                                                      TIME =     10.77
 THIS COPY OF ASPEN PLUS LICENSED TO JOHNS HOPKINS UNIVERSITY        
 
 


Calculations begin                                                              time     11.15


      UOS BLOCK RADFRAC1 MODEL: RADFRAC                                           TIME =     11.15

       Convergence iterations:
         OL   ML   IL     Err/Tol
          1    1    3     0.14756    

      UOS BLOCK RADFRAC2 MODEL: RADFRAC                                           TIME =     11.16

       Convergence iterations:
         OL   ML   IL     Err/Tol
          1    1    1     0.37113E-03

      CHECKING PHASE EQUILIBRIUM RESULTS                                          TIME =     11.16

      CHECKING PHASE EQUILIBRIUM RESULTS                                          TIME =     11.16

 STREAM D1      
        SUBSTREAM MIXED     F =  3.160598002687136E-02  T =   129.009881684015      P =   525000.000000000    
                            H =  -23031109.1727272      V =   0.00000000000000      L =   1.00000000000000    
                            ENTROPY =  -3232.90857612887      DENSITY =   1107.07264886819      MW =   51.2069045055563    
        VINYL-01  2.052708127338004E-02  ACETY-01  1.078127729714972E-03  DICHL-01  4.450172865982192E-09
        OXYGE-01  3.836282719231191E-04  HYDRO-01  4.510939335371847E-03  WATER     1.719456757111601E-04
        NITROGEN  3.651082863820029E-03  CARBONMO  3.968568330239162E-04  METHANE   8.863135937534130E-04

 STREAM B1      
        SUBSTREAM MIXED     F =  3.453682552868434E-02  T =   308.698014382001      P =   525000.000000000    
                            H =   5878024.65924640      V =   0.00000000000000      L =   1.00000000000000    
                            ENTROPY =  -1925.75066646269      DENSITY =   892.435843674481      MW =   63.3713220158197    
        VINYL-01  3.371001929022361E-02  ACETY-01  2.682144706517628E-25  DICHL-01  8.267806198614915E-04
        OXYGE-01  3.609130780126642E-59  HYDRO-01  1.064512472045811E-25  WATER     2.561859924175972E-08
        NITROGEN  7.944844287590305E-61  CARBONMO  6.720987615665552E-61  METHANE   1.744773254151483E-49


*** INPUT SPECIFICATION MESSAGES ***

 FLOWSHEET    IS GENERATED BECAUSE OF OTHER CHANGES 04/17/2025   21:56:57:99 
 FLOWSHEET
     BLOCK RADFRAC1 IN=FEED OUT=D1 B1
     BLOCK RADFRAC2 IN=B1 OUT=D2 B2

 CHANGES WERE MADE TO BLOCK        RADFRAC1 04/17/2025   21:56:57:99 
 BLOCK RADFRAC1 RADFRAC
     SUBOBJECTS INTERNALS = CS-1 CS-2
     PARAM NSTAGE=35 ALGORITHM=STANDARD HYDRAULIC=NO MAXOL=25  &
         DAMPING=NONE
     PARAM2 STATIC-DP=YES OLD-SULZER=NO
     COL-CONFIG CONDENSER=TOTAL CA-CONFIG=INT-1
     FEEDS FEED 11
     PRODUCTS B1 35 L / D1 1 L
     P-SPEC 1 525. <kPa>
     COL-SPECS D:F=0.46637684232 MOLE-RR=0.25206583009
     REPORT NOHYDRAULIC
     INTERNALS CS-1 STAGE1=2 STAGE2=5 P-UPDATE=NO TRAYTYPE=SIEVE  &
         NPASS=1 SYSFAC=1.000000000 OVER-DESIGN=1.000000000  &
         WEIR-HT=50.80000000 <mm> DC-CLEAR=38.10000000 <mm>  &
         DC-WTOP-SIDE=95.17126065 <mm> DC-WBOT-SIDE=95.17126065 <mm>  &
         HOLE-DIAM=12.70000000 <mm> HOLE-AREA=.1000000000  &
         FLOOD-METH=GLITSCH6 DECK-THICK=0.134 <IN>  &
         PCT-FLOOD-FA=80.00000000 AER-PARAM-M=1.000000000  &
         MAX-DC-LOAD=GLITSCH MAX-ACC-DP=.0250000000  &
         MAX-PCT-DCB=100.0000000 MAX-PCT-ENT=10.00000000  &
         MIN-WEIR-LD=4.470981863 MAX-WEIR-LD=117.3721131  &
         MIN-PCT-DCA=.1000000000
     TRAY-SIZE 1 2 5 SIEVE
     INTERNALS CS-2 STAGE1=6 STAGE2=34 P-UPDATE=NO  &
         TRAYTYPE=SIEVE NPASS=1 SYSFAC=1.000000000  &
         OVER-DESIGN=1.000000000 WEIR-HT=50.80000000 <mm>  &
         DC-CLEAR=38.10000000 <mm> DC-WTOP-SIDE=107.0376479 <mm>  &
         DC-WBOT-SIDE=107.0376479 <mm> HOLE-DIAM=12.70000000 <mm>  &
         HOLE-AREA=.1000000000 FLOOD-METH=GLITSCH6  &
         DECK-THICK=0.134 <IN> PCT-FLOOD-FA=80.00000000  &
         AER-PARAM-M=1.000000000 MAX-DC-LOAD=GLITSCH  &
         MAX-ACC-DP=.0250000000 MAX-PCT-DCB=100.0000000  &
         MAX-PCT-ENT=10.00000000 MIN-WEIR-LD=4.470981863  &
         MAX-WEIR-LD=117.3721131 MIN-PCT-DCA=.1000000000
     TRAY-SIZE 2 6 34 SIEVE
     UTILITIES COND-UTIL=REFRIG4 REB-UTIL=LP

 CHANGES WERE MADE TO BLOCK        RADFRAC2 04/17/2025   21:56:57:99 
 BLOCK RADFRAC2 RADFRAC
     SUBOBJECTS INTERNALS = CS-1 CS-2
     PARAM NSTAGE=36 ALGORITHM=STANDARD HYDRAULIC=NO MAXOL=25  &
         DAMPING=NONE
     PARAM2 STATIC-DP=YES OLD-SULZER=NO
     COL-CONFIG CONDENSER=TOTAL CA-CONFIG=INT-1
     FEEDS B1 4
     PRODUCTS B2 36 L / D2 1 L
     P-SPEC 1 213. <kPa>
     COL-SPECS D:F=0.90090037325 MOLE-RR=0.7444918745
     REPORT NOHYDRAULIC
     INTERNALS CS-1 STAGE1=2 STAGE2=26 P-UPDATE=NO  &
         TRAYTYPE=SIEVE NPASS=1 SYSFAC=1.000000000  &
         OVER-DESIGN=1.000000000 WEIR-HT=50.80000000 <mm>  &
         DC-CLEAR=38.10000000 <mm> DC-WTOP-SIDE=137.1772267 <mm>  &
         DC-WBOT-SIDE=137.1772267 <mm> HOLE-DIAM=12.70000000 <mm>  &
         HOLE-AREA=.1000000000 FLOOD-METH=GLITSCH6  &
         DECK-THICK=0.134 <IN> PCT-FLOOD-FA=80.00000000  &
         AER-PARAM-M=1.000000000 MAX-DC-LOAD=GLITSCH  &
         MAX-ACC-DP=.0250000000 MAX-PCT-DCB=100.0000000  &
         MAX-PCT-ENT=10.00000000 MIN-WEIR-LD=4.470981863  &
         MAX-WEIR-LD=117.3721131 MIN-PCT-DCA=.1000000000
     TRAY-SIZE 1 2 26 SIEVE
     INTERNALS CS-2 STAGE1=27 STAGE2=35 P-UPDATE=NO  &
         TRAYTYPE=SIEVE NPASS=1 SYSFAC=1.000000000  &
         OVER-DESIGN=1.000000000 WEIR-HT=50.80000000 <mm>  &
         DC-CLEAR=38.10000000 <mm> DC-WTOP-SIDE=132.4571738 <mm>  &
         DC-WBOT-SIDE=132.4571738 <mm> HOLE-DIAM=12.70000000 <mm>  &
         HOLE-AREA=.1000000000 FLOOD-METH=GLITSCH6  &
         DECK-THICK=0.134 <IN> PCT-FLOOD-FA=80.00000000  &
         AER-PARAM-M=1.000000000 MAX-DC-LOAD=GLITSCH  &
         MAX-ACC-DP=.0250000000 MAX-PCT-DCB=100.0000000  &
         MAX-PCT-ENT=10.00000000 MIN-WEIR-LD=4.470981863  &
         MAX-WEIR-LD=117.3721131 MIN-PCT-DCA=.1000000000
     TRAY-SIZE 2 27 35 SIEVE
     UTILITIES COND-UTIL=REFRIG1 REB-UTIL=LP

 PDF updated                                                                      TIME =     12.84
 THIS COPY OF ASPEN PLUS LICENSED TO JOHNS HOPKINS UNIVERSITY        
 
 


Calculations begin                                                              time     13.09


      UOS BLOCK RADFRAC1 MODEL: RADFRAC                                           TIME =     13.09

       Convergence iterations:
         OL   ML   IL     Err/Tol
          1    1   10      15673.    
          2    1    7      3453.8    
          3    1   10      5632.6    
          4    1   10      2377.4    
          5    1    4      6031.0    
          6    1    4      8990.8    
          7    1    4      23475.    
          8    1    5      3678.6    
          9    1    4      205.42    
         10    1    4      122.67    
         11    1    4      47.233    
         12    1    3      13.453    
         13    1    3      7.4422    
         14    1    3      1.0798    
         15    1    3      1.0031    
         16    1    3     0.41003    

      UOS BLOCK RADFRAC2 MODEL: RADFRAC                                           TIME =     13.11

       Convergence iterations:
         OL   ML   IL     Err/Tol
          1    1    3     0.68395    

      CHECKING PHASE EQUILIBRIUM RESULTS                                          TIME =     13.11

      CHECKING PHASE EQUILIBRIUM RESULTS                                          TIME =     13.11


*** INPUT SPECIFICATION MESSAGES ***

 FLOWSHEET    IS GENERATED BECAUSE OF OTHER CHANGES 04/17/2025   21:56:59:99 
 FLOWSHEET
     BLOCK RADFRAC1 IN=FEED OUT=D1 B1
     BLOCK RADFRAC2 IN=B1 OUT=D2 B2

 CHANGES WERE MADE TO BLOCK        RADFRAC1 04/17/2025   21:56:59:99 
 BLOCK RADFRAC1 RADFRAC
     SUBOBJECTS INTERNALS = CS-1 CS-2
     PARAM NSTAGE=31 ALGORITHM=STANDARD HYDRAULIC=NO MAXOL=25  &
         DAMPING=NONE
     PARAM2 STATIC-DP=YES OLD-SULZER=NO
     COL-CONFIG CONDENSER=TOTAL CA-CONFIG=INT-1
     FEEDS FEED 9
     PRODUCTS B1 31 L / D1 1 L
     P-SPEC 1 525. <kPa>
     COL-SPECS D:F=0.46689727186 MOLE-RR=1.3925508771
     REPORT NOHYDRAULIC
     INTERNALS CS-1 STAGE1=2 STAGE2=5 P-UPDATE=NO TRAYTYPE=SIEVE  &
         NPASS=1 SYSFAC=1.000000000 OVER-DESIGN=1.000000000  &
         WEIR-HT=50.80000000 <mm> DC-CLEAR=38.10000000 <mm>  &
         DC-WTOP-SIDE=91.25362387 <mm> DC-WBOT-SIDE=91.25362387 <mm>  &
         HOLE-DIAM=12.70000000 <mm> HOLE-AREA=.1000000000  &
         FLOOD-METH=GLITSCH6 DECK-THICK=0.134 <IN>  &
         PCT-FLOOD-FA=80.00000000 AER-PARAM-M=1.000000000  &
         MAX-DC-LOAD=GLITSCH MAX-ACC-DP=.0250000000  &
         MAX-PCT-DCB=100.0000000 MAX-PCT-ENT=10.00000000  &
         MIN-WEIR-LD=4.470981863 MAX-WEIR-LD=117.3721131  &
         MIN-PCT-DCA=.1000000000
     TRAY-SIZE 1 2 5 SIEVE
     INTERNALS CS-2 STAGE1=6 STAGE2=30 P-UPDATE=NO  &
         TRAYTYPE=SIEVE NPASS=1 SYSFAC=1.000000000  &
         OVER-DESIGN=1.000000000 WEIR-HT=50.80000000 <mm>  &
         DC-CLEAR=38.10000000 <mm> DC-WTOP-SIDE=105.6527154 <mm>  &
         DC-WBOT-SIDE=105.6527154 <mm> HOLE-DIAM=12.70000000 <mm>  &
         HOLE-AREA=.1000000000 FLOOD-METH=GLITSCH6  &
         DECK-THICK=0.134 <IN> PCT-FLOOD-FA=80.00000000  &
         AER-PARAM-M=1.000000000 MAX-DC-LOAD=GLITSCH  &
         MAX-ACC-DP=.0250000000 MAX-PCT-DCB=100.0000000  &
         MAX-PCT-ENT=10.00000000 MIN-WEIR-LD=4.470981863  &
         MAX-WEIR-LD=117.3721131 MIN-PCT-DCA=.1000000000
     TRAY-SIZE 2 6 30 SIEVE
     UTILITIES COND-UTIL=REFRIG4 REB-UTIL=LP

 CHANGES WERE MADE TO BLOCK        RADFRAC2 04/17/2025   21:56:59:99 
 BLOCK RADFRAC2 RADFRAC
     SUBOBJECTS INTERNALS = CS-1 CS-2
     PARAM NSTAGE=38 ALGORITHM=STANDARD HYDRAULIC=NO MAXOL=25  &
         DAMPING=NONE
     PARAM2 STATIC-DP=YES OLD-SULZER=NO
     COL-CONFIG CONDENSER=TOTAL CA-CONFIG=INT-1
     FEEDS B1 9
     PRODUCTS B2 38 L / D2 1 L
     P-SPEC 1 213. <kPa>
     COL-SPECS D:F=0.90279722174 MOLE-RR=0.36857004443
     REPORT NOHYDRAULIC
     INTERNALS CS-1 STAGE1=2 STAGE2=26 P-UPDATE=NO  &
         TRAYTYPE=SIEVE NPASS=1 SYSFAC=1.000000000  &
         OVER-DESIGN=1.000000000 WEIR-HT=50.80000000 <mm>  &
         DC-CLEAR=38.10000000 <mm> DC-WTOP-SIDE=131.1039612 <mm>  &
         DC-WBOT-SIDE=131.1039612 <mm> HOLE-DIAM=12.70000000 <mm>  &
         HOLE-AREA=.1000000000 FLOOD-METH=GLITSCH6  &
         DECK-THICK=0.134 <IN> PCT-FLOOD-FA=80.00000000  &
         AER-PARAM-M=1.000000000 MAX-DC-LOAD=GLITSCH  &
         MAX-ACC-DP=.0250000000 MAX-PCT-DCB=100.0000000  &
         MAX-PCT-ENT=10.00000000 MIN-WEIR-LD=4.470981863  &
         MAX-WEIR-LD=117.3721131 MIN-PCT-DCA=.1000000000
     TRAY-SIZE 1 2 26 SIEVE
     INTERNALS CS-2 STAGE1=27 STAGE2=37 P-UPDATE=NO  &
         TRAYTYPE=SIEVE NPASS=1 SYSFAC=1.000000000  &
         OVER-DESIGN=1.000000000 WEIR-HT=50.80000000 <mm>  &
         DC-CLEAR=38.10000000 <mm> DC-WTOP-SIDE=125.9560171 <mm>  &
         DC-WBOT-SIDE=125.9560171 <mm> HOLE-DIAM=12.70000000 <mm>  &
         HOLE-AREA=.1000000000 FLOOD-METH=GLITSCH6  &
         DECK-THICK=0.134 <IN> PCT-FLOOD-FA=80.00000000  &
         AER-PARAM-M=1.000000000 MAX-DC-LOAD=GLITSCH  &
         MAX-ACC-DP=.0250000000 MAX-PCT-DCB=100.0000000  &
         MAX-PCT-ENT=10.00000000 MIN-WEIR-LD=4.470981863  &
         MAX-WEIR-LD=117.3721131 MIN-PCT-DCA=.1000000000
     TRAY-SIZE 2 27 37 SIEVE
     UTILITIES COND-UTIL=REFRIG1 REB-UTIL=LP

 PDF updated                                                                      TIME =     14.76
 THIS COPY OF ASPEN PLUS LICENSED TO JOHNS HOPKINS UNIVERSITY        
 
 


Calculations begin                                                              time     15.04


      UOS BLOCK RADFRAC1 MODEL: RADFRAC                                           TIME =     15.04

       Convergence iterations:
         OL   ML   IL     Err/Tol
          1    1    5      25.853    
          2    1    3     0.40092    

      UOS BLOCK RADFRAC2 MODEL: RADFRAC                                           TIME =     15.05

       Convergence iterations:
         OL   ML   IL     Err/Tol
          1    1    3      1.4585    
          2    1    2     0.13155E-01

      CHECKING PHASE EQUILIBRIUM RESULTS                                          TIME =     15.05

      CHECKING PHASE EQUILIBRIUM RESULTS                                          TIME =     15.05


*** INPUT SPECIFICATION MESSAGES ***

 FLOWSHEET    IS GENERATED BECAUSE OF OTHER CHANGES 04/17/2025   21:57:01:09 
 FLOWSHEET
     BLOCK RADFRAC1 IN=FEED OUT=D1 B1
     BLOCK RADFRAC2 IN=B1 OUT=D2 B2

 CHANGES WERE MADE TO BLOCK        RADFRAC1 04/17/2025   21:57:01:09 
 BLOCK RADFRAC1 RADFRAC
     SUBOBJECTS INTERNALS = CS-1 CS-2
     PARAM NSTAGE=32 ALGORITHM=STANDARD HYDRAULIC=NO MAXOL=25  &
         DAMPING=NONE
     PARAM2 STATIC-DP=YES OLD-SULZER=NO
     COL-CONFIG CONDENSER=TOTAL CA-CONFIG=INT-1
     FEEDS FEED 6
     PRODUCTS B1 32 L / D1 1 L
     P-SPEC 1 525. <kPa>
     COL-SPECS D:F=0.47942952586 MOLE-RR=0.71818065063
     REPORT NOHYDRAULIC
     INTERNALS CS-1 STAGE1=2 STAGE2=5 P-UPDATE=NO TRAYTYPE=SIEVE  &
         NPASS=1 SYSFAC=1.000000000 OVER-DESIGN=1.000000000  &
         WEIR-HT=50.80000000 <mm> DC-CLEAR=38.10000000 <mm>  &
         DC-WTOP-SIDE=146.6872609 <mm> DC-WBOT-SIDE=146.6872609 <mm>  &
         HOLE-DIAM=12.70000000 <mm> HOLE-AREA=.1000000000  &
         FLOOD-METH=GLITSCH6 DECK-THICK=0.134 <IN>  &
         PCT-FLOOD-FA=80.00000000 AER-PARAM-M=1.000000000  &
         MAX-DC-LOAD=GLITSCH MAX-ACC-DP=.0250000000  &
         MAX-PCT-DCB=100.0000000 MAX-PCT-ENT=10.00000000  &
         MIN-WEIR-LD=4.470981863 MAX-WEIR-LD=117.3721131  &
         MIN-PCT-DCA=.1000000000
     TRAY-SIZE 1 2 5 SIEVE
     INTERNALS CS-2 STAGE1=6 STAGE2=31 P-UPDATE=NO  &
         TRAYTYPE=SIEVE NPASS=1 SYSFAC=1.000000000  &
         OVER-DESIGN=1.000000000 WEIR-HT=50.80000000 <mm>  &
         DC-CLEAR=38.10000000 <mm> DC-WTOP-SIDE=146.6922757 <mm>  &
         DC-WBOT-SIDE=146.6922757 <mm> HOLE-DIAM=12.70000000 <mm>  &
         HOLE-AREA=.1000000000 FLOOD-METH=GLITSCH6  &
         DECK-THICK=0.134 <IN> PCT-FLOOD-FA=80.00000000  &
         AER-PARAM-M=1.000000000 MAX-DC-LOAD=GLITSCH  &
         MAX-ACC-DP=.0250000000 MAX-PCT-DCB=100.0000000  &
         MAX-PCT-ENT=10.00000000 MIN-WEIR-LD=4.470981863  &
         MAX-WEIR-LD=117.3721131 MIN-PCT-DCA=.1000000000
     TRAY-SIZE 2 6 31 SIEVE
     UTILITIES COND-UTIL=REFRIG4 REB-UTIL=LP

 CHANGES WERE MADE TO BLOCK        RADFRAC2 04/17/2025   21:57:01:09 
 BLOCK RADFRAC2 RADFRAC
     SUBOBJECTS INTERNALS = CS-1 CS-2
     PARAM NSTAGE=41 ALGORITHM=STANDARD HYDRAULIC=NO MAXOL=25  &
         DAMPING=NONE
     PARAM2 STATIC-DP=YES OLD-SULZER=NO
     COL-CONFIG CONDENSER=TOTAL CA-CONFIG=INT-1
     FEEDS B1 33
     PRODUCTS B2 41 L / D2 1 L
     P-SPEC 1 213. <kPa>
     COL-SPECS D:F=0.90763544862 MOLE-RR=0.77632830686
     REPORT NOHYDRAULIC
     INTERNALS CS-1 STAGE1=2 STAGE2=26 P-UPDATE=NO  &
         TRAYTYPE=SIEVE NPASS=1 SYSFAC=1.000000000  &
         OVER-DESIGN=1.000000000 WEIR-HT=50.80000000 <mm>  &
         DC-CLEAR=38.10000000 <mm> DC-WTOP-SIDE=115.5359457 <mm>  &
         DC-WBOT-SIDE=115.5359457 <mm> HOLE-DIAM=12.70000000 <mm>  &
         HOLE-AREA=.1000000000 FLOOD-METH=GLITSCH6  &
         DECK-THICK=0.134 <IN> PCT-FLOOD-FA=80.00000000  &
         AER-PARAM-M=1.000000000 MAX-DC-LOAD=GLITSCH  &
         MAX-ACC-DP=.0250000000 MAX-PCT-DCB=100.0000000  &
         MAX-PCT-ENT=10.00000000 MIN-WEIR-LD=4.470981863  &
         MAX-WEIR-LD=117.3721131 MIN-PCT-DCA=.1000000000
     TRAY-SIZE 1 2 26 SIEVE
     INTERNALS CS-2 STAGE1=27 STAGE2=40 P-UPDATE=NO  &
         TRAYTYPE=SIEVE NPASS=1 SYSFAC=1.000000000  &
         OVER-DESIGN=1.000000000 WEIR-HT=50.80000000 <mm>  &
         DC-CLEAR=38.10000000 <mm> DC-WTOP-SIDE=109.3888213 <mm>  &
         DC-WBOT-SIDE=109.3888213 <mm> HOLE-DIAM=12.70000000 <mm>  &
         HOLE-AREA=.1000000000 FLOOD-METH=GLITSCH6  &
         DECK-THICK=0.134 <IN> PCT-FLOOD-FA=80.00000000  &
         AER-PARAM-M=1.000000000 MAX-DC-LOAD=GLITSCH  &
         MAX-ACC-DP=.0250000000 MAX-PCT-DCB=100.0000000  &
         MAX-PCT-ENT=10.00000000 MIN-WEIR-LD=4.470981863  &
         MAX-WEIR-LD=117.3721131 MIN-PCT-DCA=.1000000000
     TRAY-SIZE 2 27 40 SIEVE
     UTILITIES COND-UTIL=REFRIG1 REB-UTIL=LP

 PDF updated                                                                      TIME =     16.65
 THIS COPY OF ASPEN PLUS LICENSED TO JOHNS HOPKINS UNIVERSITY        
 
 


Calculations begin                                                              time     16.93


      UOS BLOCK RADFRAC1 MODEL: RADFRAC                                           TIME =     16.93

       Convergence iterations:
         OL   ML   IL     Err/Tol
          1    1    5      19.210    
          2    1    3     0.74714    

      UOS BLOCK RADFRAC2 MODEL: RADFRAC                                           TIME =     16.94

       Convergence iterations:
         OL   ML   IL     Err/Tol
          1    1    3      1.8362    
          2    1    2     0.50938E-01

      CHECKING PHASE EQUILIBRIUM RESULTS                                          TIME =     16.94

      CHECKING PHASE EQUILIBRIUM RESULTS                                          TIME =     16.94

 STREAM D2      
        SUBSTREAM MIXED     F =  3.125169618722516E-02  T =   278.651356345570      P =   213000.000000000    
                            H =   6292324.08618226      V =   0.00000000000000      L =   1.00000000000000    
                            ENTROPY =  -2093.65071973955      DENSITY =   936.073956302543      MW =   62.4985199382746    
        VINYL-01  3.125169614386001E-02  ACETY-01   0.00000000000000      DICHL-01  2.103845606482610E-32
        OXYGE-01   0.00000000000000      HYDRO-01   0.00000000000000      WATER     4.336515221739809E-11
        NITROGEN   0.00000000000000      CARBONMO   0.00000000000000      METHANE    0.00000000000000    

 STREAM B2      
        SUBSTREAM MIXED     F =  3.180295461780266E-03  T =   286.941960358585      P =   213000.000000000    
                            H =  -36421238.6171765      V =   0.00000000000000      L =   1.00000000000000    
                            ENTROPY =  -2277.08795235391      DENSITY =   1012.59853753060      MW =   71.9771879005706    
        VINYL-01  2.353514458816245E-03  ACETY-01   0.00000000000000      DICHL-01  8.267810029639826E-04
        OXYGE-01   0.00000000000000      HYDRO-01   0.00000000000000      WATER     3.886191819418628E-17
        NITROGEN   0.00000000000000      CARBONMO   0.00000000000000      METHANE    0.00000000000000    


*** INPUT SPECIFICATION MESSAGES ***

 FLOWSHEET    IS GENERATED BECAUSE OF OTHER CHANGES 04/17/2025   21:57:02:99 
 FLOWSHEET
     BLOCK RADFRAC1 IN=FEED OUT=D1 B1
     BLOCK RADFRAC2 IN=B1 OUT=D2 B2

 CHANGES WERE MADE TO BLOCK        RADFRAC1 04/17/2025   21:57:02:99 
 BLOCK RADFRAC1 RADFRAC
     SUBOBJECTS INTERNALS = CS-1 CS-2
     PARAM NSTAGE=32 ALGORITHM=STANDARD HYDRAULIC=NO MAXOL=25  &
         DAMPING=NONE
     PARAM2 STATIC-DP=YES OLD-SULZER=NO
     COL-CONFIG CONDENSER=TOTAL CA-CONFIG=INT-1
     FEEDS FEED 6
     PRODUCTS B1 32 L / D1 1 L
     P-SPEC 1 525. <kPa>
     COL-SPECS D:F=0.46451065186 MOLE-RR=0.25206583009
     REPORT NOHYDRAULIC
     INTERNALS CS-1 STAGE1=2 STAGE2=5 P-UPDATE=NO TRAYTYPE=SIEVE  &
         NPASS=1 SYSFAC=1.000000000 OVER-DESIGN=1.000000000  &
         WEIR-HT=50.80000000 <mm> DC-CLEAR=38.10000000 <mm>  &
         DC-WTOP-SIDE=118.4582088 <mm> DC-WBOT-SIDE=118.4582088 <mm>  &
         HOLE-DIAM=12.70000000 <mm> HOLE-AREA=.1000000000  &
         FLOOD-METH=GLITSCH6 DECK-THICK=0.134 <IN>  &
         PCT-FLOOD-FA=80.00000000 AER-PARAM-M=1.000000000  &
         MAX-DC-LOAD=GLITSCH MAX-ACC-DP=.0250000000  &
         MAX-PCT-DCB=100.0000000 MAX-PCT-ENT=10.00000000  &
         MIN-WEIR-LD=4.470981863 MAX-WEIR-LD=117.3721131  &
         MIN-PCT-DCA=.1000000000
     TRAY-SIZE 1 2 5 SIEVE
     INTERNALS CS-2 STAGE1=6 STAGE2=31 P-UPDATE=NO  &
         TRAYTYPE=SIEVE NPASS=1 SYSFAC=1.000000000  &
         OVER-DESIGN=1.000000000 WEIR-HT=50.80000000 <mm>  &
         DC-CLEAR=38.10000000 <mm> DC-WTOP-SIDE=121.8824675 <mm>  &
         DC-WBOT-SIDE=121.8824675 <mm> HOLE-DIAM=12.70000000 <mm>  &
         HOLE-AREA=.1000000000 FLOOD-METH=GLITSCH6  &
         DECK-THICK=0.134 <IN> PCT-FLOOD-FA=80.00000000  &
         AER-PARAM-M=1.000000000 MAX-DC-LOAD=GLITSCH  &
         MAX-ACC-DP=.0250000000 MAX-PCT-DCB=100.0000000  &
         MAX-PCT-ENT=10.00000000 MIN-WEIR-LD=4.470981863  &
         MAX-WEIR-LD=117.3721131 MIN-PCT-DCA=.1000000000
     TRAY-SIZE 2 6 31 SIEVE
     UTILITIES COND-UTIL=REFRIG4 REB-UTIL=LP

 CHANGES WERE MADE TO BLOCK        RADFRAC2 04/17/2025   21:57:02:99 
 BLOCK RADFRAC2 RADFRAC
     SUBOBJECTS INTERNALS = CS-1 CS-2
     PARAM NSTAGE=36 ALGORITHM=STANDARD HYDRAULIC=NO MAXOL=25  &
         DAMPING=NONE
     PARAM2 STATIC-DP=YES OLD-SULZER=NO
     COL-CONFIG CONDENSER=TOTAL CA-CONFIG=INT-1
     FEEDS B1 4
     PRODUCTS B2 36 L / D2 1 L
     P-SPEC 1 213. <kPa>
     COL-SPECS D:F=0.90090037325 MOLE-RR=0.74434920577
     REPORT NOHYDRAULIC
     INTERNALS CS-1 STAGE1=2 STAGE2=26 P-UPDATE=NO  &
         TRAYTYPE=SIEVE NPASS=1 SYSFAC=1.000000000  &
         OVER-DESIGN=1.000000000 WEIR-HT=50.80000000 <mm>  &
         DC-CLEAR=38.10000000 <mm> DC-WTOP-SIDE=131.2022524 <mm>  &
         DC-WBOT-SIDE=131.2022524 <mm> HOLE-DIAM=12.70000000 <mm>  &
         HOLE-AREA=.1000000000 FLOOD-METH=GLITSCH6  &
         DECK-THICK=0.134 <IN> PCT-FLOOD-FA=80.00000000  &
         AER-PARAM-M=1.000000000 MAX-DC-LOAD=GLITSCH  &
         MAX-ACC-DP=.0250000000 MAX-PCT-DCB=100.0000000  &
         MAX-PCT-ENT=10.00000000 MIN-WEIR-LD=4.470981863  &
         MAX-WEIR-LD=117.3721131 MIN-PCT-DCA=.1000000000
     TRAY-SIZE 1 2 26 SIEVE
     INTERNALS CS-2 STAGE1=27 STAGE2=35 P-UPDATE=NO  &
         TRAYTYPE=SIEVE NPASS=1 SYSFAC=1.000000000  &
         OVER-DESIGN=1.000000000 WEIR-HT=50.80000000 <mm>  &
         DC-CLEAR=38.10000000 <mm> DC-WTOP-SIDE=131.2022505 <mm>  &
         DC-WBOT-SIDE=131.2022505 <mm> HOLE-DIAM=12.70000000 <mm>  &
         HOLE-AREA=.1000000000 FLOOD-METH=GLITSCH6  &
         DECK-THICK=0.134 <IN> PCT-FLOOD-FA=80.00000000  &
         AER-PARAM-M=1.000000000 MAX-DC-LOAD=GLITSCH  &
         MAX-ACC-DP=.0250000000 MAX-PCT-DCB=100.0000000  &
         MAX-PCT-ENT=10.00000000 MIN-WEIR-LD=4.470981863  &
         MAX-WEIR-LD=117.3721131 MIN-PCT-DCA=.1000000000
     TRAY-SIZE 2 27 35 SIEVE
     UTILITIES COND-UTIL=REFRIG1 REB-UTIL=LP

 PDF updated                                                                      TIME =     18.60
 THIS COPY OF ASPEN PLUS LICENSED TO JOHNS HOPKINS UNIVERSITY        
 
 


Calculations begin                                                              time     18.92


      UOS BLOCK RADFRAC1 MODEL: RADFRAC                                           TIME =     18.92

       Convergence iterations:
         OL   ML   IL     Err/Tol
          1    1    5      12.392    
          2    1    3      1.0325    
          3    1    2     0.25954    

      UOS BLOCK RADFRAC2 MODEL: RADFRAC                                           TIME =     18.93

       Convergence iterations:
         OL   ML   IL     Err/Tol
          1    1    4      2.8971    
          2    1    2     0.60162E-01

      CHECKING PHASE EQUILIBRIUM RESULTS                                          TIME =     18.93

      CHECKING PHASE EQUILIBRIUM RESULTS                                          TIME =     18.93

 STREAM D1      
        SUBSTREAM MIXED     F =  3.072403772446042E-02  T =   128.363682720467      P =   525000.000000000    
                            H =  -23442969.2525109      V =   0.00000000000000      L =   1.00000000000000    
                            ENTROPY =  -3235.11787199664      DENSITY =   1106.47096625085      MW =   50.8832346713777    
        VINYL-01  1.964540579263862E-02  ACETY-01  1.078127729161225E-03  DICHL-01  3.212550787475679E-08
        OXYGE-01  3.836282717260802E-04  HYDRO-01  4.510939333054942E-03  WATER     1.716511843086524E-04
        NITROGEN  3.651082861944762E-03  CARBONMO  3.968568328200827E-04  METHANE   8.863135932981848E-04

 STREAM B1      
        SUBSTREAM MIXED     F =  3.541876783109528E-02  T =   308.677036383989      P =   525000.000000000    
                            H =   5973459.42860077      V =   0.00000000000000      L =   1.00000000000000    
                            ENTROPY =  -1925.34009160994      DENSITY =   892.250541975266      MW =   63.3491905289459    
        VINYL-01  3.459169477631709E-02  ACETY-01  1.493226958890724E-23  DICHL-01  8.267529448640359E-04
        OXYGE-01  2.884600691397827E-56  HYDRO-01  6.463181895207021E-24  WATER     3.201099141564821E-07
        NITROGEN  7.810833008028257E-58  CARBONMO  6.160495205373313E-58  METHANE   6.663353258062539E-47

 STREAM D2      
        SUBSTREAM MIXED     F =  3.190878115908884E-02  T =   278.651040877428      P =   213000.000000000    
                            H =   6286612.15950124      V =   0.00000000000000      L =   1.00000000000000    
                            ENTROPY =  -2093.64411055615      DENSITY =   936.082613976723      MW =   62.4987302576104    
        VINYL-01  3.190788649562401E-02  ACETY-01   0.00000000000000      DICHL-01  5.745535512222612E-07
        OXYGE-01   0.00000000000000      HYDRO-01   0.00000000000000      WATER     3.201099136143429E-07
        NITROGEN   0.00000000000000      CARBONMO   0.00000000000000      METHANE    0.00000000000000    

 STREAM B2      
        SUBSTREAM MIXED     F =  3.509986672006436E-03  T =   286.030257497235      P =   213000.000000000    
                            H =  -32397723.0502549      V =   0.00000000000000      L =   1.00000000000000    
                            ENTROPY =  -2259.42091278108      DENSITY =   1006.04117912118      MW =   71.0806019792355    
        VINYL-01  2.683808267974498E-03  ACETY-01   0.00000000000000      DICHL-01  8.261784040319382E-04
        OXYGE-01   0.00000000000000      HYDRO-01   0.00000000000000      WATER     6.062971798090414E-26
        NITROGEN   0.00000000000000      CARBONMO   0.00000000000000      METHANE    0.00000000000000    


*** INPUT SPECIFICATION MESSAGES ***

 FLOWSHEET    IS GENERATED BECAUSE OF OTHER CHANGES 04/17/2025   21:57:05:09 
 FLOWSHEET
     BLOCK RADFRAC1 IN=FEED OUT=D1 B1
     BLOCK RADFRAC2 IN=B1 OUT=D2 B2

 CHANGES WERE MADE TO BLOCK        RADFRAC1 04/17/2025   21:57:05:09 
 BLOCK RADFRAC1 RADFRAC
     SUBOBJECTS INTERNALS = CS-1 CS-2
     PARAM NSTAGE=34 ALGORITHM=STANDARD HYDRAULIC=NO MAXOL=25  &
         DAMPING=NONE
     PARAM2 STATIC-DP=YES OLD-SULZER=NO
     COL-CONFIG CONDENSER=TOTAL CA-CONFIG=INT-1
     FEEDS FEED 6
     PRODUCTS B1 34 L / D1 1 L
     P-SPEC 1 525. <kPa>
     COL-SPECS D:F=0.47784456316 MOLE-RR=0.25234157437
     REPORT NOHYDRAULIC
     INTERNALS CS-1 STAGE1=2 STAGE2=5 P-UPDATE=NO TRAYTYPE=SIEVE  &
         NPASS=1 SYSFAC=1.000000000 OVER-DESIGN=1.000000000  &
         WEIR-HT=50.80000000 <mm> DC-CLEAR=38.10000000 <mm>  &
         DC-WTOP-SIDE=91.01927431 <mm> DC-WBOT-SIDE=91.01927431 <mm>  &
         HOLE-DIAM=12.70000000 <mm> HOLE-AREA=.1000000000  &
         FLOOD-METH=GLITSCH6 DECK-THICK=0.134 <IN>  &
         PCT-FLOOD-FA=80.00000000 AER-PARAM-M=1.000000000  &
         MAX-DC-LOAD=GLITSCH MAX-ACC-DP=.0250000000  &
         MAX-PCT-DCB=100.0000000 MAX-PCT-ENT=10.00000000  &
         MIN-WEIR-LD=4.470981863 MAX-WEIR-LD=117.3721131  &
         MIN-PCT-DCA=.1000000000
     TRAY-SIZE 1 2 5 SIEVE
     INTERNALS CS-2 STAGE1=6 STAGE2=33 P-UPDATE=NO  &
         TRAYTYPE=SIEVE NPASS=1 SYSFAC=1.000000000  &
         OVER-DESIGN=1.000000000 WEIR-HT=50.80000000 <mm>  &
         DC-CLEAR=38.10000000 <mm> DC-WTOP-SIDE=108.7288224 <mm>  &
         DC-WBOT-SIDE=108.7288224 <mm> HOLE-DIAM=12.70000000 <mm>  &
         HOLE-AREA=.1000000000 FLOOD-METH=GLITSCH6  &
         DECK-THICK=0.134 <IN> PCT-FLOOD-FA=80.00000000  &
         AER-PARAM-M=1.000000000 MAX-DC-LOAD=GLITSCH  &
         MAX-ACC-DP=.0250000000 MAX-PCT-DCB=100.0000000  &
         MAX-PCT-ENT=10.00000000 MIN-WEIR-LD=4.470981863  &
         MAX-WEIR-LD=117.3721131 MIN-PCT-DCA=.1000000000
     TRAY-SIZE 2 6 33 SIEVE
     UTILITIES COND-UTIL=REFRIG4 REB-UTIL=LP

 CHANGES WERE MADE TO BLOCK        RADFRAC2 04/17/2025   21:57:05:09 
 BLOCK RADFRAC2 RADFRAC
     SUBOBJECTS INTERNALS = CS-1 CS-2
     PARAM NSTAGE=37 ALGORITHM=STANDARD HYDRAULIC=NO MAXOL=25  &
[...]
                            H =  -32841600.0890155      V =   0.00000000000000      L =   1.00000000000000    
                            ENTROPY =  -2261.38443223682      DENSITY =   1006.77223650530      MW =   71.1794502009470    
        VINYL-01  2.643469894115869E-03  ACETY-01   0.00000000000000      DICHL-01  8.260625400740075E-04
        OXYGE-01   0.00000000000000      HYDRO-01   0.00000000000000      WATER     2.621900509729849E-24
        NITROGEN   0.00000000000000      CARBONMO   0.00000000000000      METHANE    0.00000000000000    


*** INPUT SPECIFICATION MESSAGES ***

 CHANGES WERE MADE TO BLOCK        RADFRAC1 04/17/2025   21:57:29:99 
 BLOCK RADFRAC1 RADFRAC
     SUBOBJECTS INTERNALS = CS-1 CS-2
     PARAM NSTAGE=35 ALGORITHM=STANDARD HYDRAULIC=NO MAXOL=25  &
         DAMPING=NONE
     PARAM2 STATIC-DP=YES OLD-SULZER=NO
     COL-CONFIG CONDENSER=TOTAL CA-CONFIG=INT-1
     FEEDS FEED 5
     PRODUCTS B1 35 L / D1 1 L
     P-SPEC 1 525. <kPa>
     COL-SPECS D:F=0.47932442522 MOLE-RR=0.75217004505
     REPORT NOHYDRAULIC
     INTERNALS CS-1 STAGE1=2 STAGE2=5 P-UPDATE=NO TRAYTYPE=SIEVE  &
         NPASS=1 SYSFAC=1.000000000 OVER-DESIGN=1.000000000  &
         WEIR-HT=50.80000000 <mm> DC-CLEAR=38.10000000 <mm>  &
         DC-WTOP-SIDE=84.40070661 <mm> DC-WBOT-SIDE=84.40070661 <mm>  &
         HOLE-DIAM=12.70000000 <mm> HOLE-AREA=.1000000000  &
         FLOOD-METH=GLITSCH6 DECK-THICK=0.134 <IN>  &
         PCT-FLOOD-FA=80.00000000 AER-PARAM-M=1.000000000  &
         MAX-DC-LOAD=GLITSCH MAX-ACC-DP=.0250000000  &
         MAX-PCT-DCB=100.0000000 MAX-PCT-ENT=10.00000000  &
         MIN-WEIR-LD=4.470981863 MAX-WEIR-LD=117.3721131  &
         MIN-PCT-DCA=.1000000000
     TRAY-SIZE 1 2 5 SIEVE
     INTERNALS CS-2 STAGE1=6 STAGE2=34 P-UPDATE=NO  &
         TRAYTYPE=SIEVE NPASS=1 SYSFAC=1.000000000  &
         OVER-DESIGN=1.000000000 WEIR-HT=50.80000000 <mm>  &
         DC-CLEAR=38.10000000 <mm> DC-WTOP-SIDE=105.7000000 <mm>  &
         DC-WBOT-SIDE=105.7000000 <mm> HOLE-DIAM=12.70000000 <mm>  &
         HOLE-AREA=.1000000000 FLOOD-METH=GLITSCH6  &
         DECK-THICK=0.134 <IN> PCT-FLOOD-FA=80.00000000  &
         AER-PARAM-M=1.000000000 MAX-DC-LOAD=GLITSCH  &
         MAX-ACC-DP=.0250000000 MAX-PCT-DCB=100.0000000  &
         MAX-PCT-ENT=10.00000000 MIN-WEIR-LD=4.470981863  &
         MAX-WEIR-LD=117.3721131 MIN-PCT-DCA=.1000000000
     TRAY-SIZE 2 6 34 SIEVE
     UTILITIES COND-UTIL=REFRIG4 REB-UTIL=LP

 CHANGES WERE MADE TO BLOCK        RADFRAC2 04/17/2025   21:57:29:99 
 BLOCK RADFRAC2 RADFRAC
     SUBOBJECTS INTERNALS = CS-1 CS-2
     PARAM NSTAGE=36 ALGORITHM=STANDARD HYDRAULIC=NO MAXOL=25  &
         DAMPING=NONE
     PARAM2 STATIC-DP=YES OLD-SULZER=NO
     COL-CONFIG CONDENSER=TOTAL CA-CONFIG=INT-1
     FEEDS B1 4
     PRODUCTS B2 36 L / D2 1 L
     P-SPEC 1 213. <kPa>
     COL-SPECS D:F=0.90760725998 MOLE-RR=0.77634050272
     REPORT NOHYDRAULIC
     INTERNALS CS-1 STAGE1=2 STAGE2=26 P-UPDATE=NO  &
         TRAYTYPE=SIEVE NPASS=1 SYSFAC=1.000000000  &
         OVER-DESIGN=1.000000000 WEIR-HT=50.80000000 <mm>  &
         DC-CLEAR=38.10000000 <mm> DC-WTOP-SIDE=131.1478597 <mm>  &
         DC-WBOT-SIDE=131.1478597 <mm> HOLE-DIAM=12.70000000 <mm>  &
         HOLE-AREA=.1000000000 FLOOD-METH=GLITSCH6  &
         DECK-THICK=0.134 <IN> PCT-FLOOD-FA=80.00000000  &
         AER-PARAM-M=1.000000000 MAX-DC-LOAD=GLITSCH  &
         MAX-ACC-DP=.0250000000 MAX-PCT-DCB=100.0000000  &
         MAX-PCT-ENT=10.00000000 MIN-WEIR-LD=4.470981863  &
         MAX-WEIR-LD=117.3721131 MIN-PCT-DCA=.1000000000
     TRAY-SIZE 1 2 26 SIEVE
     INTERNALS CS-2 STAGE1=27 STAGE2=35 P-UPDATE=NO  &
         TRAYTYPE=SIEVE NPASS=1 SYSFAC=1.000000000  &
         OVER-DESIGN=1.000000000 WEIR-HT=50.80000000 <mm>  &
         DC-CLEAR=38.10000000 <mm> DC-WTOP-SIDE=126.0218307 <mm>  &
         DC-WBOT-SIDE=126.0218307 <mm> HOLE-DIAM=12.70000000 <mm>  &
         HOLE-AREA=.1000000000 FLOOD-METH=GLITSCH6  &
         DECK-THICK=0.134 <IN> PCT-FLOOD-FA=80.00000000  &
         AER-PARAM-M=1.000000000 MAX-DC-LOAD=GLITSCH  &
         MAX-ACC-DP=.0250000000 MAX-PCT-DCB=100.0000000  &
         MAX-PCT-ENT=10.00000000 MIN-WEIR-LD=4.470981863  &
         MAX-WEIR-LD=117.3721131 MIN-PCT-DCA=.1000000000
     TRAY-SIZE 2 27 35 SIEVE
     UTILITIES COND-UTIL=REFRIG1 REB-UTIL=LP

 PDF updated                                                                      TIME =     44.74
 THIS COPY OF ASPEN PLUS LICENSED TO JOHNS HOPKINS UNIVERSITY        
 
 


Calculations begin                                                              time     44.98


      UOS BLOCK RADFRAC1 MODEL: RADFRAC                                           TIME =     44.98

       Convergence iterations:
         OL   ML   IL     Err/Tol
          1    1    4      13.112    
          2    1    3     0.17152    

      UOS BLOCK RADFRAC2 MODEL: RADFRAC                                           TIME =     44.99

       Convergence iterations:
         OL   ML   IL     Err/Tol
          1    1    4      2.1733    
          2    1    2     0.60882E-01

      CHECKING PHASE EQUILIBRIUM RESULTS                                          TIME =     44.99

      CHECKING PHASE EQUILIBRIUM RESULTS                                          TIME =     44.99


*** INPUT SPECIFICATION MESSAGES ***

 FLOWSHEET    IS GENERATED BECAUSE OF OTHER CHANGES 04/17/2025   21:57:31:99 
 FLOWSHEET
     BLOCK RADFRAC1 IN=FEED OUT=D1 B1
     BLOCK RADFRAC2 IN=B1 OUT=D2 B2

 CHANGES WERE MADE TO BLOCK        RADFRAC1 04/17/2025   21:57:31:99 
 BLOCK RADFRAC1 RADFRAC
     SUBOBJECTS INTERNALS = CS-1 CS-2
     PARAM NSTAGE=32 ALGORITHM=STANDARD HYDRAULIC=NO MAXOL=25  &
         DAMPING=NONE
     PARAM2 STATIC-DP=YES OLD-SULZER=NO
     COL-CONFIG CONDENSER=TOTAL CA-CONFIG=INT-1
     FEEDS FEED 11
     PRODUCTS B1 32 L / D1 1 L
     P-SPEC 1 525. <kPa>
     COL-SPECS D:F=0.46637684232 MOLE-RR=0.25206583009
     REPORT NOHYDRAULIC
     INTERNALS CS-1 STAGE1=2 STAGE2=5 P-UPDATE=NO TRAYTYPE=SIEVE  &
         NPASS=1 SYSFAC=1.000000000 OVER-DESIGN=1.000000000  &
         WEIR-HT=50.80000000 <mm> DC-CLEAR=38.10000000 <mm>  &
         DC-WTOP-SIDE=120.5254270 <mm> DC-WBOT-SIDE=120.5254270 <mm>  &
         HOLE-DIAM=12.70000000 <mm> HOLE-AREA=.1000000000  &
         FLOOD-METH=GLITSCH6 DECK-THICK=0.134 <IN>  &
         PCT-FLOOD-FA=80.00000000 AER-PARAM-M=1.000000000  &
         MAX-DC-LOAD=GLITSCH MAX-ACC-DP=.0250000000  &
         MAX-PCT-DCB=100.0000000 MAX-PCT-ENT=10.00000000  &
         MIN-WEIR-LD=4.470981863 MAX-WEIR-LD=117.3721131  &
         MIN-PCT-DCA=.1000000000
     TRAY-SIZE 1 2 5 SIEVE
     INTERNALS CS-2 STAGE1=6 STAGE2=31 P-UPDATE=NO  &
         TRAYTYPE=SIEVE NPASS=1 SYSFAC=1.000000000  &
         OVER-DESIGN=1.000000000 WEIR-HT=50.80000000 <mm>  &
         DC-CLEAR=38.10000000 <mm> DC-WTOP-SIDE=122.8337656 <mm>  &
         DC-WBOT-SIDE=122.8337656 <mm> HOLE-DIAM=12.70000000 <mm>  &
         HOLE-AREA=.1000000000 FLOOD-METH=GLITSCH6  &
         DECK-THICK=0.134 <IN> PCT-FLOOD-FA=80.00000000  &
         AER-PARAM-M=1.000000000 MAX-DC-LOAD=GLITSCH  &
         MAX-ACC-DP=.0250000000 MAX-PCT-DCB=100.0000000  &
         MAX-PCT-ENT=10.00000000 MIN-WEIR-LD=4.470981863  &
         MAX-WEIR-LD=117.3721131 MIN-PCT-DCA=.1000000000
     TRAY-SIZE 2 6 31 SIEVE
     UTILITIES COND-UTIL=REFRIG4 REB-UTIL=LP

 CHANGES WERE MADE TO BLOCK        RADFRAC2 04/17/2025   21:57:31:99 
 BLOCK RADFRAC2 RADFRAC
     SUBOBJECTS INTERNALS = CS-1 CS-2
     PARAM NSTAGE=36 ALGORITHM=STANDARD HYDRAULIC=NO MAXOL=25  &
         DAMPING=NONE
     PARAM2 STATIC-DP=YES OLD-SULZER=NO
     COL-CONFIG CONDENSER=TOTAL CA-CONFIG=INT-1
     FEEDS B1 4
     PRODUCTS B2 36 L / D2 1 L
     P-SPEC 1 213. <kPa>
     COL-SPECS D:F=0.90090037325 MOLE-RR=0.74435272755
     REPORT NOHYDRAULIC
     INTERNALS CS-1 STAGE1=2 STAGE2=26 P-UPDATE=NO  &
         TRAYTYPE=SIEVE NPASS=1 SYSFAC=1.000000000  &
         OVER-DESIGN=1.000000000 WEIR-HT=50.80000000 <mm>  &
         DC-CLEAR=38.10000000 <mm> DC-WTOP-SIDE=131.2086777 <mm>  &
         DC-WBOT-SIDE=131.2086777 <mm> HOLE-DIAM=12.70000000 <mm>  &
         HOLE-AREA=.1000000000 FLOOD-METH=GLITSCH6  &
         DECK-THICK=0.134 <IN> PCT-FLOOD-FA=80.00000000  &
         AER-PARAM-M=1.000000000 MAX-DC-LOAD=GLITSCH  &
         MAX-ACC-DP=.0250000000 MAX-PCT-DCB=100.0000000  &
         MAX-PCT-ENT=10.00000000 MIN-WEIR-LD=4.470981863  &
         MAX-WEIR-LD=117.3721131 MIN-PCT-DCA=.1000000000
     TRAY-SIZE 1 2 26 SIEVE
     INTERNALS CS-2 STAGE1=27 STAGE2=35 P-UPDATE=NO  &
         TRAYTYPE=SIEVE NPASS=1 SYSFAC=1.000000000  &
         OVER-DESIGN=1.000000000 WEIR-HT=50.80000000 <mm>  &
         DC-CLEAR=38.10000000 <mm> DC-WTOP-SIDE=126.1955261 <mm>  &
         DC-WBOT-SIDE=126.1955261 <mm> HOLE-DIAM=12.70000000 <mm>  &
         HOLE-AREA=.1000000000 FLOOD-METH=GLITSCH6  &
         DECK-THICK=0.134 <IN> PCT-FLOOD-FA=80.00000000  &
         AER-PARAM-M=1.000000000 MAX-DC-LOAD=GLITSCH  &
         MAX-ACC-DP=.0250000000 MAX-PCT-DCB=100.0000000  &
         MAX-PCT-ENT=10.00000000 MIN-WEIR-LD=4.470981863  &
         MAX-WEIR-LD=117.3721131 MIN-PCT-DCA=.1000000000
     TRAY-SIZE 2 27 35 SIEVE
     UTILITIES COND-UTIL=REFRIG1 REB-UTIL=LP

 PDF updated                                                                      TIME =     46.71
 THIS COPY OF ASPEN PLUS LICENSED TO JOHNS HOPKINS UNIVERSITY        
 
 


Calculations begin                                                              time     46.98


      UOS BLOCK RADFRAC1 MODEL: RADFRAC                                           TIME =     46.98

       Convergence iterations:
         OL   ML   IL     Err/Tol
          1    1   10      4591.3    
          2    1   10      6601.6    
          3    1    5      11104.    
          4    1    5      29436.    
          5    1    6      10812.    
          6    1    5      1543.5    
          7    1    5      481.17    
          8    1    4      188.54    
          9    1    3      94.900    
         10    1    4      39.431    
         11    1    3      20.742    
         12    1    3      9.7760    
         13    1    3      4.2302    
         14    1    3      2.0735    
         15    1    3      1.0215    
         16    1    3     0.51996    

      UOS BLOCK RADFRAC2 MODEL: RADFRAC                                           TIME =     47.00

       Convergence iterations:
         OL   ML   IL     Err/Tol
          1    1    4      2.3335    
          2    1    2     0.57388E-01

      CHECKING PHASE EQUILIBRIUM RESULTS                                          TIME =     47.00

      CHECKING PHASE EQUILIBRIUM RESULTS                                          TIME =     47.00

 STREAM D1      
        SUBSTREAM MIXED     F =  3.084747279718584E-02  T =   128.454486752918      P =   525000.000000000    
                            H =  -23379019.2350683      V =   0.00000000000000      L =   1.00000000000000    
                            ENTROPY =  -3234.78367982916      DENSITY =   1106.55851633861      MW =   50.9303837831181    
        VINYL-01  1.976936450629999E-02  ACETY-01  1.078127757583566E-03  DICHL-01  1.095299344364995E-11
        OXYGE-01  3.836282818395511E-04  HYDRO-01  4.510939451975410E-03  WATER     1.711593703911292E-04
        NITROGEN  3.651082958197105E-03  CARBONMO  3.968568432822940E-04  METHANE   8.863136166637904E-04

 STREAM B1      
        SUBSTREAM MIXED     F =  3.529533275836987E-02  T =   308.678964055596      P =   525000.000000000    
                            H =   5956123.54617143      V =   0.00000000000000      L =   1.00000000000000    
                            ENTROPY =  -1925.39918180385      DENSITY =   892.280248105921      MW =   63.3515788085986    
        VINYL-01  3.446773578966705E-02  ACETY-01  4.980501428766847E-20  DICHL-01  8.267850403764364E-04
        OXYGE-01  5.610297783761140E-47  HYDRO-01  3.263888725992490E-20  WATER     8.119283263875916E-07
        NITROGEN  4.301339482122403E-48  CARBONMO  2.385832488712824E-48  METHANE   3.219132633512556E-39


*** INPUT SPECIFICATION MESSAGES ***

 FLOWSHEET    IS GENERATED BECAUSE OF OTHER CHANGES 04/17/2025   21:57:33:99 
 FLOWSHEET
     BLOCK RADFRAC1 IN=FEED OUT=D1 B1
     BLOCK RADFRAC2 IN=B1 OUT=D2 B2

 CHANGES WERE MADE TO BLOCK        RADFRAC1 04/17/2025   21:57:33:99 
 BLOCK RADFRAC1 RADFRAC
     SUBOBJECTS INTERNALS = CS-1 CS-2
     PARAM NSTAGE=32 ALGORITHM=STANDARD HYDRAULIC=NO MAXOL=25  &
         DAMPING=NONE
     PARAM2 STATIC-DP=YES OLD-SULZER=NO
     COL-CONFIG CONDENSER=TOTAL CA-CONFIG=INT-1
     FEEDS FEED 11
     PRODUCTS B1 32 L / D1 1 L
     P-SPEC 1 525. <kPa>
     COL-SPECS D:F=0.46637684232 MOLE-RR=0.25206583009
     REPORT NOHYDRAULIC
     INTERNALS CS-1 STAGE1=2 STAGE2=5 P-UPDATE=NO TRAYTYPE=SIEVE  &
         NPASS=1 SYSFAC=1.000000000 OVER-DESIGN=1.000000000  &
         WEIR-HT=50.80000000 <mm> DC-CLEAR=38.10000000 <mm>  &
         DC-WTOP-SIDE=91.25228311 <mm> DC-WBOT-SIDE=91.25228311 <mm>  &
         HOLE-DIAM=12.70000000 <mm> HOLE-AREA=.1000000000  &
         FLOOD-METH=GLITSCH6 DECK-THICK=0.134 <IN>  &
         PCT-FLOOD-FA=80.00000000 AER-PARAM-M=1.000000000  &
         MAX-DC-LOAD=GLITSCH MAX-ACC-DP=.0250000000  &
         MAX-PCT-DCB=100.0000000 MAX-PCT-ENT=10.00000000  &
         MIN-WEIR-LD=4.470981863 MAX-WEIR-LD=117.3721131  &
         MIN-PCT-DCA=.1000000000
     TRAY-SIZE 1 2 5 SIEVE
     INTERNALS CS-2 STAGE1=6 STAGE2=31 P-UPDATE=NO  &
         TRAYTYPE=SIEVE NPASS=1 SYSFAC=1.000000000  &
         OVER-DESIGN=1.000000000 WEIR-HT=50.80000000 <mm>  &
         DC-CLEAR=38.10000000 <mm> DC-WTOP-SIDE=105.6504805 <mm>  &
         DC-WBOT-SIDE=105.6504805 <mm> HOLE-DIAM=12.70000000 <mm>  &
         HOLE-AREA=.1000000000 FLOOD-METH=GLITSCH6  &
         DECK-THICK=0.134 <IN> PCT-FLOOD-FA=80.00000000  &
         AER-PARAM-M=1.000000000 MAX-DC-LOAD=GLITSCH  &
         MAX-ACC-DP=.0250000000 MAX-PCT-DCB=100.0000000  &
         MAX-PCT-ENT=10.00000000 MIN-WEIR-LD=4.470981863  &
         MAX-WEIR-LD=117.3721131 MIN-PCT-DCA=.1000000000
     TRAY-SIZE 2 6 31 SIEVE
     UTILITIES COND-UTIL=REFRIG4 REB-UTIL=LP

 CHANGES WERE MADE TO BLOCK        RADFRAC2 04/17/2025   21:57:33:99 
 BLOCK RADFRAC2 RADFRAC
     SUBOBJECTS INTERNALS = CS-1 CS-2
     PARAM NSTAGE=35 ALGORITHM=STANDARD HYDRAULIC=NO MAXOL=25  &
         DAMPING=NONE
     PARAM2 STATIC-DP=YES OLD-SULZER=NO
     COL-CONFIG CONDENSER=TOTAL CA-CONFIG=INT-1
     FEEDS B1 4
     PRODUCTS B2 35 L / D2 1 L
     P-SPEC 1 213. <kPa>
     COL-SPECS D:F=0.90090037325 MOLE-RR=0.7444918745
     REPORT NOHYDRAULIC
     INTERNALS CS-1 STAGE1=2 STAGE2=26 P-UPDATE=NO  &
         TRAYTYPE=SIEVE NPASS=1 SYSFAC=1.000000000  &
         OVER-DESIGN=1.000000000 WEIR-HT=50.80000000 <mm>  &
         DC-CLEAR=38.10000000 <mm> DC-WTOP-SIDE=131.1000000 <mm>  &
         DC-WBOT-SIDE=131.1000000 <mm> HOLE-DIAM=12.70000000 <mm>  &
         HOLE-AREA=.1000000000 FLOOD-METH=GLITSCH6  &
         DECK-THICK=0.134 <IN> PCT-FLOOD-FA=80.00000000  &
         AER-PARAM-M=1.000000000 MAX-DC-LOAD=GLITSCH  &
         MAX-ACC-DP=.0250000000 MAX-PCT-DCB=100.0000000  &
         MAX-PCT-ENT=10.00000000 MIN-WEIR-LD=4.470981863  &
         MAX-WEIR-LD=117.3721131 MIN-PCT-DCA=.1000000000
     TRAY-SIZE 1 2 26 SIEVE
     INTERNALS CS-2 STAGE1=27 STAGE2=34 P-UPDATE=NO  &
         TRAYTYPE=SIEVE NPASS=1 SYSFAC=1.000000000  &
         OVER-DESIGN=1.000000000 WEIR-HT=50.80000000 <mm>  &
         DC-CLEAR=38.10000000 <mm> DC-WTOP-SIDE=125.9601136 <mm>  &
         DC-WBOT-SIDE=125.9601136 <mm> HOLE-DIAM=12.70000000 <mm>  &
         HOLE-AREA=.1000000000 FLOOD-METH=GLITSCH6  &
         DECK-THICK=0.134 <IN> PCT-FLOOD-FA=80.00000000  &
         AER-PARAM-M=1.000000000 MAX-DC-LOAD=GLITSCH  &
         MAX-ACC-DP=.0250000000 MAX-PCT-DCB=100.0000000  &
         MAX-PCT-ENT=10.00000000 MIN-WEIR-LD=4.470981863  &
         MAX-WEIR-LD=117.3721131 MIN-PCT-DCA=.1000000000
     TRAY-SIZE 2 27 34 SIEVE
     UTILITIES COND-UTIL=REFRIG1 REB-UTIL=LP

 PDF updated                                                                      TIME =     48.87
 THIS COPY OF ASPEN PLUS LICENSED TO JOHNS HOPKINS UNIVERSITY        
 
 


Calculations begin                                                              time     49.14


      UOS BLOCK RADFRAC1 MODEL: RADFRAC                                           TIME =     49.14

       Convergence iterations:
         OL   ML   IL     Err/Tol
          1    1    3     0.58458E-01

      UOS BLOCK RADFRAC2 MODEL: RADFRAC                                           TIME =     49.14

       Convergence iterations:
         OL   ML   IL     Err/Tol
          1    1    1     0.64322E-03

      CHECKING PHASE EQUILIBRIUM RESULTS                                          TIME =     49.14

      CHECKING PHASE EQUILIBRIUM RESULTS                                          TIME =     49.14

 STREAM D1      
        SUBSTREAM MIXED     F =  3.084747279718584E-02  T =   128.454487360192      P =   525000.000000000    
                            H =  -23379020.2043863      V =   0.00000000000000      L =   1.00000000000000    
                            ENTROPY =  -3234.78368975265      DENSITY =   1106.55851732720      MW =   50.9303838653578    
        VINYL-01  1.976936463979896E-02  ACETY-01  1.078127730594506E-03  DICHL-01  1.097156966104290E-11
        OXYGE-01  3.836282722360819E-04  HYDRO-01  4.510939339051858E-03  WATER     1.711595099101484E-04
        NITROGEN  3.651082866798571E-03  CARBONMO  3.968568333476708E-04  METHANE   8.863135944764646E-04

 STREAM B1      
        SUBSTREAM MIXED     F =  3.529533275836987E-02  T =   308.678964327945      P =   525000.000000000    
                            H =   5956124.57689250      V =   0.00000000000000      L =   1.00000000000000    
                            ENTROPY =  -1925.39918128390      DENSITY =   892.280247181870      MW =   63.3515790084811    
        VINYL-01  3.446773591538264E-02  ACETY-01  4.980340514848240E-20  DICHL-01  8.267850584467727E-04
        OXYGE-01  5.610152493718410E-47  HYDRO-01  3.263780998507442E-20  WATER     8.117845404540976E-07
        NITROGEN  4.301230816894185E-48  CARBONMO  2.385771015779707E-48  METHANE   3.219044990823582E-39

 STREAM D2      
        SUBSTREAM MIXED     F =  3.179757845599838E-02  T =   278.649804259796      P =   213000.000000000    
                            H =   6282365.77349008      V =   0.00000000000000      L =   1.00000000000000    
                            ENTROPY =  -2093.64953450706      DENSITY =   936.086957951179      MW =   62.4980430173272    
        VINYL-01  3.179619224619874E-02  ACETY-01   0.00000000000000      DICHL-01  5.744252591702826E-07
        OXYGE-01   0.00000000000000      HYDRO-01   0.00000000000000      WATER     8.117845404683676E-07
        NITROGEN   0.00000000000000      CARBONMO   0.00000000000000      METHANE    0.00000000000000    

 STREAM B2      
        SUBSTREAM MIXED     F =  3.497754302371488E-03  T =   286.060543018198      P =   213000.000000000    
                            H =  -32533993.8316206      V =   0.00000000000000      L =   1.00000000000000    
                            ENTROPY =  -2260.02324457980      DENSITY =   1006.26557682927      MW =   71.1109512492696    
        VINYL-01  2.671543669315915E-03  ACETY-01   0.00000000000000      DICHL-01  8.262106330555732E-04
        OXYGE-01   0.00000000000000      HYDRO-01   0.00000000000000      WATER     5.241158773517785E-25
        NITROGEN   0.00000000000000      CARBONMO   0.00000000000000      METHANE    0.00000000000000    
