
 + + + + + + + + + + + + + + + + + + + + + + + + + + + + + + + + + + + + + + + +
 + + + + + + + + + + + + + + + + + + + + + + + + + + + + + + + + + + + + + + + +
 + +                                                                         + +
 + +                      ASPEN PLUS CALCULATION HISTORY                     + +
 + +                                                                         + +
 + + + + + + + + + + + + + + + + + + + + + + + + + + + + + + + + + + + + + + + +
 + + + + + + + + + + + + + + + + + + + + + + + + + + + + + + + + + + + + + + + +

 ASPEN PLUS IS A TRADEMARK OF           HOTLINE:
 ASPEN TECHNOLOGY, INC.                 U.S.A. 888/996-7100
 781/221-6400                           EUROPE (44) 1189-226555

 PLATFORM: WIN-X64                                       APRIL 17, 2025      
 VERSION: 40.0   Build 359                               THURSDAY    
 INSTALLATION:                                           9:59:50 P.M.        

 THIS COPY OF ASPEN PLUS LICENSED TO JOHNS HOPKINS UNIVERSITY        


      ASPEN PLUS (R) IS A PROPRIETARY PRODUCT OF ASPEN TECHNOLOGY, INC.
      (ASPENTECH), AND MAY BE USED ONLY UNDER AGREEMENT WITH ASPENTECH.
      RESTRICTED RIGHTS LEGEND:  USE, REPRODUCTION, OR DISCLOSURE BY THE
      U.S. GOVERNMENT IS SUBJECT TO RESTRICTIONS SET FORTH IN 
      (i) FAR 52.227-14, Alt. III, (ii) FAR 52.227-19, (iii) DFARS 
      252.227-7013(c)(1)(ii), or (iv) THE ACCOMPANYING LICENSE AGREEMENT,
      AS APPLICABLE. FOR PURPOSES OF THE FAR, THIS SOFTWARE SHALL BE DEEMED
      TO BE "UNPUBLISHED" AND LICENSED WITH DISCLOSURE PROHIBITIONS.
      CONTRACTOR/SUBCONTRACTOR: ASPEN TECHNOLOGY, INC. 20 CROSBY DRIVE,
      BEDFORD, MA 01730.
 *** INPUT SUMMARY ***

 >>CURRENT RUN

   ORIGINAL RUN                           APRIL 17, 2025      
   9:59:50 P.M.                           THURSDAY    
   INPUT FILE: _5946poj.inm
   RUN ID : _5946poj
          1    ;
          2    ;Input file created by Aspen Plus Rel. 40.0 at 21:59:50 Thu Apr 17, 2025
          3    ;Directory C:\Users\wsangpa1\OneDrive - Johns Hopkins\ASPEN\Aspen\Vinyl_Distillation  Runid VINYL CHLORIDE DISTILLATION
          4    ;
          5
          6
          7    DYNAMICS
          8        DYNAMICS RESULTS=ON
          9
         10    IN-UNITS MET PRESSURE=bar TEMPERATURE=C DELTA-T=C PDROP=bar  &
         11            INVERSE-PRES='1/bar' SHORT-LENGTH=mm
         12
         13    DEF-STREAMS CONVEN ALL
         14
         15    MODEL-OPTION
         16
         17    DATABANKS 'APV140 PURE40' / 'APV140 AQUEOUS' / 'APV140 SOLIDS' &
         18             / 'APV140 INORGANIC' / 'APESV140 AP-EOS' /  &
         19            'NISTV140 NIST-TRC' / 'APESV140 ACIDGAS' /  &
         20            'APESV140 BIOFEED' / 'APESV140 FERMENT' /  &
         21            'APESV140 FLARE' / 'APV140 ASPENPCD' / 'APV140 BIODIESEL' &
         22             / 'APV140 COMBUST' / 'APV140 ELECPURE' /  &
         23            'APV140 EOS-LIT' / 'APV140 ETHYLENE' / 'APV140 HYSYS' /  &
         24            'APV140 INITIATO' / 'APV140 NRTL-SAC' / 'APV140 PC-SAFT' &
         25             / 'APV140 POLYMER' / 'APV140 POLYPCSF' /  &
         26            'APV140 PURE25' / 'APV140 PURE26' / 'APV140 PURE27' /  &
         27            'APV140 PURE28' / 'APV140 PURE32' / 'APV140 PURE35' /  &
         28            'APV140 PURE36' / 'APV140 PURE37' / 'APV140 PURE38' /  &
         29            'APV140 PURE39' / 'APV140 SEGMENT' / 'FACTV140 FACTPCD'
         30
         31    PROP-SOURCES 'APV140 PURE40' / 'APV140 AQUEOUS' /  &
         32            'APV140 SOLIDS' / 'APV140 INORGANIC' / 'APESV140 AP-EOS' &
         33             / 'NISTV140 NIST-TRC' / 'APESV140 ACIDGAS' /  &
         34            'APESV140 BIOFEED' / 'APESV140 FERMENT' /  &
         35            'APESV140 FLARE' / 'APV140 ASPENPCD' / 'APV140 BIODIESEL' &
         36             / 'APV140 COMBUST' / 'APV140 ELECPURE' /  &
         37            'APV140 EOS-LIT' / 'APV140 ETHYLENE' / 'APV140 HYSYS' /  &
         38            'APV140 INITIATO' / 'APV140 NRTL-SAC' / 'APV140 PC-SAFT' &
         39             / 'APV140 POLYMER' / 'APV140 POLYPCSF' /  &
         40            'APV140 PURE25' / 'APV140 PURE26' / 'APV140 PURE27' /  &
         41            'APV140 PURE28' / 'APV140 PURE32' / 'APV140 PURE35' /  &
         42            'APV140 PURE36' / 'APV140 PURE37' / 'APV140 PURE38' /  &
         43            'APV140 PURE39' / 'APV140 SEGMENT' / 'FACTV140 FACTPCD'
         44
         45    COMPONENTS
         46        VINYL-01 C2H3CL /
         47        ACETY-01 C2H2 /
         48        DICHL-01 C2H4CL2-1 /
         49        OXYGE-01 O2 /
         50        HYDRO-01 HCL /
         51        WATER H2O /
         52        NITROGEN N2 /
         53        CARBONMO CO /
         54        METHANE CH4
         55
         56    SOLVE
         57        RUN-MODE MODE=SIM
         58
         59    FLOWSHEET
         60        BLOCK RADFRAC1 IN=FEED OUT=D1 B1
         61        BLOCK RADFRAC2 IN=B1 OUT=D2 B2
         62
         63    PROPERTIES NRTL
         64
         65    PROP-DATA PCES-1
         66        IN-UNITS MET PRESSURE=bar TEMPERATURE=C DELTA-T=C PDROP=bar  &
         67            INVERSE-PRES='1/bar' SHORT-LENGTH=mm
         68        PROP-LIST DHVLB / VB / RKTZRA / VLSTD
         69        PVAL DICHL-01 6750.889295 / 88.65938200 / .2692624250 /  &
         70            83.75050270
         71
         72    PROP-DATA DHVLWT-1
         73        IN-UNITS MET PRESSURE=bar TEMPERATURE=C DELTA-T=C PDROP=bar  &
         74            INVERSE-PRES='1/bar' SHORT-LENGTH=mm
         75        PROP-LIST DHVLWT
         76        PVAL DICHL-01 6750.889295 57.20700000 .3800000000 0.0  &
         77            -141.0072000
         78
         79    PROP-DATA KLDIP-1
         80        IN-UNITS MET PRESSURE=bar TEMPERATURE=C DELTA-T=C PDROP=bar  &
         81            INVERSE-PRES='1/bar' SHORT-LENGTH=mm
         82        PROP-LIST KLDIP
         83        PVAL DICHL-01 .1017396118 6.34424108E-5 -4.1249461E-6  &
         84            2.17593050E-8 -4.501867E-11 57.20700000 243.5904000
         85
         86    PROP-DATA MULAND-1
         87        IN-UNITS MET PRESSURE=bar TEMPERATURE=C DELTA-T=C PDROP=bar  &
         88            INVERSE-PRES='1/bar' SHORT-LENGTH=mm
         89        PROP-LIST MULAND
         90        PVAL DICHL-01 80.92147478 -3642.542350 -12.26059350  &
         91            57.20700000 243.5904000
         92
         93    PROP-DATA SIGDIP-1
         94        IN-UNITS MET PRESSURE=bar TEMPERATURE=C DELTA-T=C PDROP=bar  &
         95            INVERSE-PRES='1/bar' SHORT-LENGTH=mm
         96        PROP-LIST SIGDIP
         97        PVAL DICHL-01 68.72045330 1.222222220 -1.348626E-10  &
         98            1.4957495E-10 -6.024811E-11 57.20700000 238.3708000
         99
        100    PROP-DATA NRTL-1
        101        IN-UNITS MET PRESSURE=bar TEMPERATURE=C DELTA-T=C PDROP=bar  &
        102            INVERSE-PRES='1/bar' SHORT-LENGTH=mm
        103        PROP-LIST NRTL
        104        BPVAL VINYL-01 HYDRO-01 .3421000000 -119.7519000 .3000000000  &
        105            0.0 0.0 0.0 -80.70000000 -80.70000000
        106        BPVAL HYDRO-01 VINYL-01 .1251000000 13.81580000 .3000000000  &
        107            0.0 0.0 0.0 -80.70000000 -80.70000000
        108        BPVAL VINYL-01 WATER -7.166300000 3581.032000 .3000000000  &
        109            0.0 0.0 0.0 15.00000000 92.00000000
        110        BPVAL WATER VINYL-01 4.137300000 253.3814000 .3000000000  &
        111            0.0 0.0 0.0 15.00000000 92.00000000
        112        BPVAL DICHL-01 WATER 161.6302000 -4790.826200 .2000000000  &
        113            0.0 -24.93690000 0.0 0.0 50.00000000
        114        BPVAL WATER DICHL-01 128.7456000 -6025.360400 .2000000000  &
        115            0.0 -18.11790000 0.0 0.0 50.00000000
        116
        117    STREAM FEED
        118        SUBSTREAM MIXED TEMP=15.0227 PRES=540. <kPa>  &
        119            MOLE-FLOW=238.1141
        120        MOLE-FRAC VINYL-01 0.82 / ACETY-01 0.0163 / DICHL-01  &
        121            0.0125 / OXYGE-01 0.0058 / HYDRO-01 0.0682 / WATER  &
        122            0.0026 / NITROGEN 0.0552 / CARBONMO 0.006 / METHANE  &
        123            0.0134
        124
        125    BLOCK RADFRAC1 RADFRAC
        126        SUBOBJECTS INTERNALS = CS-1 CS-2
        127        PARAM NSTAGE=31 ALGORITHM=STANDARD HYDRAULIC=NO MAXOL=25  &
        128            DAMPING=NONE
        129        PARAM2 STATIC-DP=YES OLD-SULZER=NO
        130        COL-CONFIG CONDENSER=TOTAL CA-CONFIG=INT-1
        131        FEEDS FEED 24
        132        PRODUCTS B1 31 L / D1 1 L
        133        P-SPEC 1 525. <kPa>
        134        COL-SPECS D:F=0.4739142979 MOLE-RR=1.0652276286
        135        REPORT NOHYDRAULIC
        136        INTERNALS CS-1 STAGE1=2 STAGE2=5 P-UPDATE=NO TRAYTYPE=SIEVE  &
        137            NPASS=1 SYSFAC=1.000000000 OVER-DESIGN=1.000000000  &
        138            WEIR-HT=50.80000000 <mm> DC-CLEAR=38.10000000 <mm>  &
        139            DC-WTOP-SIDE=141.1844920 <mm> DC-WBOT-SIDE=141.1844920 <mm>  &
        140            HOLE-DIAM=12.70000000 <mm> HOLE-AREA=.1000000000  &
        141            FLOOD-METH=GLITSCH6 DECK-THICK=0.134 <IN>  &
        142            PCT-FLOOD-FA=80.00000000 AER-PARAM-M=1.000000000  &
        143            MAX-DC-LOAD=GLITSCH MAX-ACC-DP=.0250000000  &
        144            MAX-PCT-DCB=100.0000000 MAX-PCT-ENT=10.00000000  &
        145            MIN-WEIR-LD=4.470981863 MAX-WEIR-LD=117.3721131  &
        146            MIN-PCT-DCA=.1000000000
        147        TRAY-SIZE 1 2 5 SIEVE
        148        INTERNALS CS-2 STAGE1=6 STAGE2=30 P-UPDATE=NO  &
        149            TRAYTYPE=SIEVE NPASS=1 SYSFAC=1.000000000  &
        150            OVER-DESIGN=1.000000000 WEIR-HT=50.80000000 <mm>  &
        151            DC-CLEAR=38.10000000 <mm> DC-WTOP-SIDE=138.4000000 <mm>  &
        152            DC-WBOT-SIDE=138.4000000 <mm> HOLE-DIAM=12.70000000 <mm>  &
        153            HOLE-AREA=.1000000000 FLOOD-METH=GLITSCH6  &
        154            DECK-THICK=0.134 <IN> PCT-FLOOD-FA=80.00000000  &
        155            AER-PARAM-M=1.000000000 MAX-DC-LOAD=GLITSCH  &
        156            MAX-ACC-DP=.0250000000 MAX-PCT-DCB=100.0000000  &
        157            MAX-PCT-ENT=10.00000000 MIN-WEIR-LD=4.470981863  &
        158            MAX-WEIR-LD=117.3721131 MIN-PCT-DCA=.1000000000
        159        TRAY-SIZE 2 6 30 SIEVE
        160        UTILITIES COND-UTIL=REFRIG4 REB-UTIL=LP
        161
        162    BLOCK RADFRAC2 RADFRAC
        163        SUBOBJECTS INTERNALS = CS-1 CS-2
        164        PARAM NSTAGE=36 ALGORITHM=STANDARD HYDRAULIC=NO MAXOL=25  &
        165            DAMPING=NONE
        166        PARAM2 STATIC-DP=YES OLD-SULZER=NO
        167        COL-CONFIG CONDENSER=TOTAL CA-CONFIG=INT-1
        168        FEEDS B1 31
        169        PRODUCTS B2 36 L / D2 1 L
        170        P-SPEC 1 213. <kPa>
        171        COL-SPECS D:F=0.90568258419 MOLE-RR=1.2106892923
        172        REPORT NOHYDRAULIC
        173        INTERNALS CS-1 STAGE1=2 STAGE2=26 P-UPDATE=NO  &
        174            TRAYTYPE=SIEVE NPASS=1 SYSFAC=1.000000000  &
        175            OVER-DESIGN=1.000000000 WEIR-HT=50.80000000 <mm>  &
        176            DC-CLEAR=38.10000000 <mm> DC-WTOP-SIDE=131.3579200 <mm>  &
        177            DC-WBOT-SIDE=131.3579200 <mm> HOLE-DIAM=12.70000000 <mm>  &
        178            HOLE-AREA=.1000000000 FLOOD-METH=GLITSCH6  &
        179            DECK-THICK=0.134 <IN> PCT-FLOOD-FA=80.00000000  &
        180            AER-PARAM-M=1.000000000 MAX-DC-LOAD=GLITSCH  &
        181            MAX-ACC-DP=.0250000000 MAX-PCT-DCB=100.0000000  &
        182            MAX-PCT-ENT=10.00000000 MIN-WEIR-LD=4.470981863  &
        183            MAX-WEIR-LD=117.3721131 MIN-PCT-DCA=.1000000000
        184        TRAY-SIZE 1 2 26 SIEVE
        185        INTERNALS CS-2 STAGE1=27 STAGE2=35 P-UPDATE=NO  &
        186            TRAYTYPE=SIEVE NPASS=1 SYSFAC=1.000000000  &
        187            OVER-DESIGN=1.000000000 WEIR-HT=50.80000000 <mm>  &
        188            DC-CLEAR=38.10000000 <mm> DC-WTOP-SIDE=126.2597047 <mm>  &
        189            DC-WBOT-SIDE=126.2597047 <mm> HOLE-DIAM=12.70000000 <mm>  &
        190            HOLE-AREA=.1000000000 FLOOD-METH=GLITSCH6  &
        191            DECK-THICK=0.134 <IN> PCT-FLOOD-FA=80.00000000  &
        192            AER-PARAM-M=1.000000000 MAX-DC-LOAD=GLITSCH  &
        193            MAX-ACC-DP=.0250000000 MAX-PCT-DCB=100.0000000  &
        194            MAX-PCT-ENT=10.00000000 MIN-WEIR-LD=4.470981863  &
        195            MAX-WEIR-LD=117.3721131 MIN-PCT-DCA=.1000000000
        196        TRAY-SIZE 2 27 35 SIEVE
        197        UTILITIES COND-UTIL=REFRIG1 REB-UTIL=LP
        198
        199    UTILITY HP GENERAL
        200        DESCRIPTION  &
        201            'High Pressure Steam, Inlet Temp=250 C, Outlet Temp=249 C, Pres=572 psia'
        202        COST ENERGY-PRICE=2.5E-06 <$/kJ>
        203        PARAM UTILITY-TYPE=STEAM TIN=250. TOUT=249. VFRAC=1.  &
        204            VFR-OUT=0. CALOPT=FLASH MIN-TAPP=10. CALCCO2=YES  &
        205            FACTORSOURCE="US-Title40-Part98" FUELSOURCE="Natural_gas"  &
        206            CO2FACTOR=2.10554172E-7 EFFICIENCY=0.85  &
        207            HTC=0.0216 <GJ/hr-sqm-C>
        208
        209    UTILITY LP GENERAL
        210        DESCRIPTION  &
        211            'Low Pressure Steam, Inlet Temp=125 C, Outlet Temp=124 C'
        212        COST ENERGY-PRICE=1.9E-06 <$/kJ>
        213        PARAM UTILITY-TYPE=STEAM TIN=125. TOUT=124. VFRAC=1.  &
        214            VFR-OUT=0. CALOPT=FLASH MIN-TAPP=10. CALCCO2=YES  &
        215            FACTORSOURCE="US-Title40-Part98" FUELSOURCE="Natural_gas"  &
        216            CO2FACTOR=2.10554172E-7 EFFICIENCY=0.85  &
        217            HTC=0.0216 <GJ/hr-sqm-C>
        218
        219    UTILITY MP GENERAL
        220        DESCRIPTION  &
        221            'Medium Pressure Steam, Inlet Temp=175 C, Outlet Temp=174 C, Pres=127 psia'
        222        COST ENERGY-PRICE=2.2E-06 <$/kJ>
        223        PARAM UTILITY-TYPE=STEAM TIN=175. TOUT=174. VFRAC=1.  &
        224            VFR-OUT=0. CALOPT=FLASH MIN-TAPP=10. CALCCO2=YES  &
        225            FACTORSOURCE="US-Title40-Part98" FUELSOURCE="Natural_gas"  &
        226            CO2FACTOR=2.10554172E-7 EFFICIENCY=0.85  &
        227            HTC=0.0216 <GJ/hr-sqm-C>
        228
        229    UTILITY REFRIG1 GENERAL
        230        DESCRIPTION  &
        231            'Refrigerant 1, Inlet Temp=-25 C, Outlet Temp=-24 C'
        232        COST ENERGY-PRICE=2.74E-06 <$/kJ>
        233        PARAM UTILITY-TYPE=REFRIGERATIO COOLING-VALU=-4. <kJ/kg>  &
        234            TIN=-25. TOUT=-24. MIN-TAPP=3. CALCCO2=YES FACTORSOURCE= &
        235            "US-Title40-Part98" FUELSOURCE="Natural_gas"  &
        236            CO2FACTOR=2.10554172E-7 EFFICIENCY=1.  &
        237            HTC=0.00468 <GJ/hr-sqm-C>
        238
        239    UTILITY REFRIG4 GENERAL
        240        DESCRIPTION  &
        241            'Very Low Temperature, Inlet Temp=-270 C, Outlet Temp=-269 C'
        242        COST ENERGY-PRICE=8.9E-06 <$/kJ>
        243        PARAM UTILITY-TYPE=REFRIGERATIO COOLING-VALU=-1.341 <kJ/kg>  &
        244            TIN=-270. TOUT=-269. MIN-TAPP=2. CALCCO2=YES  &
        245            FACTORSOURCE="US-Title40-Part98" FUELSOURCE="Natural_gas"  &
        246            CO2FACTOR=2.10554172E-7 EFFICIENCY=1.  &
        247            HTC=0.00468 <GJ/hr-sqm-C>
        248
        249    UTILITY WATER GENERAL
        250        DESCRIPTION 'Cooling Water, Inlet Temp=20 C, Outlet Temp=25 C'
        251        COST ENERGY-PRICE=2.12E-07 <$/kJ>
        252        PARAM UTILITY-TYPE=WATER PRES=1. <atm> PRES-OUT=1. <atm>  &
        253            TIN=20. TOUT=25. CALOPT=FLASH MIN-TAPP=5.  &
        254            HTC=0.0135 <GJ/hr-sqm-C>
        255
        256    EO-CONV-OPTI
        257
        258    STREAM-REPOR MOLEFLOW
        259
        260    PROPERTY-REP PCES NOPROP-DATA NODFMS
        261    ;
        262    ;
        263    ;
        264    ;
        265    ;
 *** INPUT TRANSLATOR MESSAGES ***

  *** THIS RUN USES THE PROPERTIES ENTERPRISE DATABASE ***
      SQLLOCALDB.APESV140 : (DATAVERSION - 40.0.0.13)                         
      SQLLOCALDB.APV140 : (DATAVERSION - 40.0.0.13)                           
      SQLLOCALDB.FACTV140 : (DATAVERSION - 40.0.0.12)                         
      SQLLOCALDB.NISTV140 : (DATAVERSION - 40.0.0.12)                         
 
 

 PDF updated                                                                      TIME =      2.40

 *** CALCULATION TRACE ***


 *** FLOWSHEET ANALYSIS MESSAGES ***

 FLOWSHEET CONNECTIVITY BY STREAMS       

   STREAM     SOURCE     DEST           STREAM     SOURCE     DEST
   FEED       ----       RADFRAC1       D1         RADFRAC1   ----    
   B1         RADFRAC1   RADFRAC2       D2         RADFRAC2   ----    
   B2         RADFRAC2   ----                                         

 FLOWSHEET CONNECTIVITY BY BLOCKS        

   BLOCK        INLETS                         OUTLETS
   RADFRAC1     FEED                           D1 B1                       
   RADFRAC2     B1                             D2 B2                       

      COMPUTATION ORDER FOR THE FLOWSHEET IS:
      REFRIG1 LP REFRIG4 RADFRAC1 RADFRAC2 HP MP WATER 

Calculations begin                                                              time      1.48


 SIMULATION CALCULATIONS BEGIN                                                    TIME =      1.49

      UTILITY BLOCK REFRIG1  MODEL: GENERAL                                       TIME =      1.49
      HEATING/COOLING VALUE    -4.000000D+03 J/KG

      UTILITY BLOCK LP       MODEL: GENERAL                                       TIME =      1.49
      KODE = 5  NTRIAL =   2  T = 398.1500  P =  232179.      V =  1.00000      Q =  0.00000    
      KODE = 5  NTRIAL =   2  T = 397.1500  P =  225121.      V =  0.00000      Q =  0.00000    
      HEATING/COOLING VALUE     2.191879D+06 J/KG

      UTILITY BLOCK REFRIG4  MODEL: GENERAL                                       TIME =      1.49
      HEATING/COOLING VALUE    -1.341000D+03 J/KG

      ENTHALPY CALCULATION FOR INLET STREAM FEED OF BLOCK RADFRAC1                TIME =      1.49
      KODE = 2  NTRIAL =   4  T = 288.1727  P =  540000.      V = 0.293865      Q =  0.00000    

      UOS BLOCK RADFRAC1 MODEL: RADFRAC                                           TIME =      1.49

       Convergence iterations:
         OL   ML   IL     Err/Tol
          1    1   10      16969.    
          2    1   10      17067.    
          3    1   10      20295.    
          4    1   10      50190.    
          5    1    9      7720.4    
          6    1    6      4099.8    
          7    1   10     0.21624E+13
          8    1   10      56997.    
          9    1    7      2805.5    
         10    1    5      343.44    
         11    1    4      59.018    
         12    1    4      37.390    
         13    1    4      6.3888    
         14    1    4      2.1229    
         15    1    3      1.1448    
         16    1    3     0.46351    

      UOS BLOCK RADFRAC2 MODEL: RADFRAC                                           TIME =      1.50

       Convergence iterations:
         OL   ML   IL     Err/Tol
          1    1    2     0.61184    
          2    1    2     0.36952E-01

      UTILITY BLOCK HP       MODEL: GENERAL                                       TIME =      1.50
      KODE = 5  NTRIAL =   5  T = 523.1500  P = 3.975372E+06  V =  1.00000      Q =  0.00000    
      KODE = 5  NTRIAL =   5  T = 522.1500  P = 3.908667E+06  V =  0.00000      Q =  0.00000    
      HEATING/COOLING VALUE     1.719324D+06 J/KG

      UTILITY BLOCK MP       MODEL: GENERAL                                       TIME =      1.50
      KODE = 5  NTRIAL =   3  T = 448.1500  P =  892540.      V =  1.00000      Q =  0.00000    
      KODE = 5  NTRIAL =   3  T = 447.1500  P =  871696.      V =  0.00000      Q =  0.00000    
      HEATING/COOLING VALUE     2.034752D+06 J/KG

      UTILITY BLOCK WATER    MODEL: GENERAL                                       TIME =      1.50
      KODE = 2  NTRIAL =   1  T = 293.1500  P =  101325.      V =  0.00000      Q =  0.00000    
      KODE = 3  NTRIAL =   4  T = 373.1407  P =  101325.      V =  0.00000      Q = 6.026911E+06
      KODE = 2  NTRIAL =   1  T = 298.1500  P =  101325.      V =  0.00000      Q =  0.00000    
      KODE = 3  NTRIAL =   4  T = 373.1407  P =  101325.      V =  0.00000      Q = 5.650828E+06
      HEATING/COOLING VALUE    -2.087576D+04 J/KG

      CHECKING PHASE EQUILIBRIUM RESULTS                                          TIME =      1.51

      CHECKING PHASE EQUILIBRIUM RESULTS                                          TIME =      1.51

 STREAM D2      
        SUBSTREAM MIXED     F =  3.151484152592598E-02  T =   278.650272794410      P =   213000.000000000    
                            H =   6288624.04701885      V =   0.00000000000000      L =   1.00000000000000    
                            ENTROPY =  -2093.65324758775      DENSITY =   936.077736773872      MW =   62.4979178609419    
        VINYL-01  3.151441492119320E-02  ACETY-01  9.646960893018328E-12  DICHL-01  1.423865549021310E-33
        OXYGE-01   0.00000000000000      HYDRO-01  1.986015681807184E-11  WATER     4.265752256609243E-07
        NITROGEN   0.00000000000000      CARBONMO   0.00000000000000      METHANE    0.00000000000000    

 STREAM B2      
        SUBSTREAM MIXED     F =  3.281942773632300E-03  T =   286.639978577987      P =   213000.000000000    
                            H =  -35104481.9914930      V =   0.00000000000000      L =   1.00000000000000    
                            ENTROPY =  -2271.33140332780      DENSITY =   1010.46750536589      MW =   71.6836624547713    
        VINYL-01  2.455157702076886E-03  ACETY-01  1.671549996224278E-20  DICHL-01  8.267850598542638E-04
        OXYGE-01   0.00000000000000      HYDRO-01  2.571798605491962E-20  WATER     1.170115009392501E-11
        NITROGEN   0.00000000000000      CARBONMO   0.00000000000000      METHANE    0.00000000000000    


*** INPUT SPECIFICATION MESSAGES ***

 FLOWSHEET    IS GENERATED BECAUSE OF OTHER CHANGES 04/17/2025   21:59:56:99 
 FLOWSHEET
     BLOCK RADFRAC1 IN=FEED OUT=D1 B1
     BLOCK RADFRAC2 IN=B1 OUT=D2 B2

 CHANGES WERE MADE TO BLOCK        RADFRAC1 04/17/2025   21:59:56:99 
 BLOCK RADFRAC1 RADFRAC
     SUBOBJECTS INTERNALS = CS-1 CS-2
     PARAM NSTAGE=35 ALGORITHM=STANDARD HYDRAULIC=NO MAXOL=25  &
         DAMPING=NONE
     PARAM2 STATIC-DP=YES OLD-SULZER=NO
     COL-CONFIG CONDENSER=TOTAL CA-CONFIG=INT-1
     FEEDS FEED 10
     PRODUCTS B1 35 L / D1 1 L
     P-SPEC 1 525. <kPa>
     COL-SPECS D:F=0.47348072804 MOLE-RR=0.49092599528
     REPORT NOHYDRAULIC
     INTERNALS CS-1 STAGE1=2 STAGE2=5 P-UPDATE=NO TRAYTYPE=SIEVE  &
         NPASS=1 SYSFAC=1.000000000 OVER-DESIGN=1.000000000  &
         WEIR-HT=50.80000000 <mm> DC-CLEAR=38.10000000 <mm>  &
         DC-WTOP-SIDE=134.0102125 <mm> DC-WBOT-SIDE=134.0102125 <mm>  &
         HOLE-DIAM=12.70000000 <mm> HOLE-AREA=.1000000000  &
         FLOOD-METH=GLITSCH6 DECK-THICK=0.134 <IN>  &
         PCT-FLOOD-FA=80.00000000 AER-PARAM-M=1.000000000  &
         MAX-DC-LOAD=GLITSCH MAX-ACC-DP=.0250000000  &
         MAX-PCT-DCB=100.0000000 MAX-PCT-ENT=10.00000000  &
         MIN-WEIR-LD=4.470981863 MAX-WEIR-LD=117.3721131  &
         MIN-PCT-DCA=.1000000000
     TRAY-SIZE 1 2 5 SIEVE
     INTERNALS CS-2 STAGE1=6 STAGE2=34 P-UPDATE=NO  &
         TRAYTYPE=SIEVE NPASS=1 SYSFAC=1.000000000  &
         OVER-DESIGN=1.000000000 WEIR-HT=50.80000000 <mm>  &
         DC-CLEAR=38.10000000 <mm> DC-WTOP-SIDE=134.0180614 <mm>  &
         DC-WBOT-SIDE=134.0180614 <mm> HOLE-DIAM=12.70000000 <mm>  &
         HOLE-AREA=.1000000000 FLOOD-METH=GLITSCH6  &
         DECK-THICK=0.134 <IN> PCT-FLOOD-FA=80.00000000  &
         AER-PARAM-M=1.000000000 MAX-DC-LOAD=GLITSCH  &
         MAX-ACC-DP=.0250000000 MAX-PCT-DCB=100.0000000  &
         MAX-PCT-ENT=10.00000000 MIN-WEIR-LD=4.470981863  &
         MAX-WEIR-LD=117.3721131 MIN-PCT-DCA=.1000000000
     TRAY-SIZE 2 6 34 SIEVE
     UTILITIES COND-UTIL=REFRIG4 REB-UTIL=LP

 CHANGES WERE MADE TO BLOCK        RADFRAC2 04/17/2025   21:59:56:99 
 BLOCK RADFRAC2 RADFRAC
     SUBOBJECTS INTERNALS = CS-1 CS-2
     PARAM NSTAGE=36 ALGORITHM=STANDARD HYDRAULIC=NO MAXOL=25  &
         DAMPING=NONE
     PARAM2 STATIC-DP=YES OLD-SULZER=NO
     COL-CONFIG CONDENSER=TOTAL CA-CONFIG=INT-1
     FEEDS B1 16
     PRODUCTS B2 36 L / D2 1 L
     P-SPEC 1 213. <kPa>
     COL-SPECS D:F=0.90714663064 MOLE-RR=0.60101562583
     REPORT NOHYDRAULIC
     INTERNALS CS-1 STAGE1=2 STAGE2=26 P-UPDATE=NO  &
         TRAYTYPE=SIEVE NPASS=1 SYSFAC=1.000000000  &
         OVER-DESIGN=1.000000000 WEIR-HT=50.80000000 <mm>  &
         DC-CLEAR=38.10000000 <mm> DC-WTOP-SIDE=147.7666984 <mm>  &
         DC-WBOT-SIDE=147.7666984 <mm> HOLE-DIAM=12.70000000 <mm>  &
         HOLE-AREA=.1000000000 FLOOD-METH=GLITSCH6  &
         DECK-THICK=0.134 <IN> PCT-FLOOD-FA=80.00000000  &
         AER-PARAM-M=1.000000000 MAX-DC-LOAD=GLITSCH  &
         MAX-ACC-DP=.0250000000 MAX-PCT-DCB=100.0000000  &
         MAX-PCT-ENT=10.00000000 MIN-WEIR-LD=4.470981863  &
         MAX-WEIR-LD=117.3721131 MIN-PCT-DCA=.1000000000
     TRAY-SIZE 1 2 26 SIEVE
     INTERNALS CS-2 STAGE1=27 STAGE2=35 P-UPDATE=NO  &
         TRAYTYPE=SIEVE NPASS=1 SYSFAC=1.000000000  &
         OVER-DESIGN=1.000000000 WEIR-HT=50.80000000 <mm>  &
         DC-CLEAR=38.10000000 <mm> DC-WTOP-SIDE=147.7666438 <mm>  &
         DC-WBOT-SIDE=147.7666438 <mm> HOLE-DIAM=12.70000000 <mm>  &
         HOLE-AREA=.1000000000 FLOOD-METH=GLITSCH6  &
         DECK-THICK=0.134 <IN> PCT-FLOOD-FA=80.00000000  &
         AER-PARAM-M=1.000000000 MAX-DC-LOAD=GLITSCH  &
         MAX-ACC-DP=.0250000000 MAX-PCT-DCB=100.0000000  &
         MAX-PCT-ENT=10.00000000 MIN-WEIR-LD=4.470981863  &
         MAX-WEIR-LD=117.3721131 MIN-PCT-DCA=.1000000000
     TRAY-SIZE 2 27 35 SIEVE
     UTILITIES COND-UTIL=REFRIG1 REB-UTIL=LP

 PDF updated                                                                      TIME =      3.40
 THIS COPY OF ASPEN PLUS LICENSED TO JOHNS HOPKINS UNIVERSITY        
 
 


Calculations begin                                                              time      3.72


      UOS BLOCK RADFRAC1 MODEL: RADFRAC                                           TIME =      3.72

       Convergence iterations:
         OL   ML   IL     Err/Tol
          1    1    5      21.475    
          2    1    3     0.88625    

      UOS BLOCK RADFRAC2 MODEL: RADFRAC                                           TIME =      3.72

       Convergence iterations:
         OL   ML   IL     Err/Tol
          1    1    4      1.2540    
          2    1    3     0.11345E-01

      CHECKING PHASE EQUILIBRIUM RESULTS                                          TIME =      3.72

      CHECKING PHASE EQUILIBRIUM RESULTS                                          TIME =      3.73


*** INPUT SPECIFICATION MESSAGES ***

 FLOWSHEET    IS GENERATED BECAUSE OF OTHER CHANGES 04/17/2025   21:59:58:99 
 FLOWSHEET
     BLOCK RADFRAC1 IN=FEED OUT=D1 B1
     BLOCK RADFRAC2 IN=B1 OUT=D2 B2

 CHANGES WERE MADE TO BLOCK        RADFRAC1 04/17/2025   21:59:58:99 
 BLOCK RADFRAC1 RADFRAC
     SUBOBJECTS INTERNALS = CS-1 CS-2
     PARAM NSTAGE=32 ALGORITHM=STANDARD HYDRAULIC=NO MAXOL=25  &
         DAMPING=NONE
     PARAM2 STATIC-DP=YES OLD-SULZER=NO
     COL-CONFIG CONDENSER=TOTAL CA-CONFIG=INT-1
     FEEDS FEED 24
     PRODUCTS B1 32 L / D1 1 L
     P-SPEC 1 525. <kPa>
     COL-SPECS D:F=0.47128724627 MOLE-RR=0.91158323566
     REPORT NOHYDRAULIC
     INTERNALS CS-1 STAGE1=2 STAGE2=5 P-UPDATE=NO TRAYTYPE=SIEVE  &
         NPASS=1 SYSFAC=1.000000000 OVER-DESIGN=1.000000000  &
         WEIR-HT=50.80000000 <mm> DC-CLEAR=38.10000000 <mm>  &
         DC-WTOP-SIDE=105.7520359 <mm> DC-WBOT-SIDE=105.7520359 <mm>  &
         HOLE-DIAM=12.70000000 <mm> HOLE-AREA=.1000000000  &
         FLOOD-METH=GLITSCH6 DECK-THICK=0.134 <IN>  &
         PCT-FLOOD-FA=80.00000000 AER-PARAM-M=1.000000000  &
         MAX-DC-LOAD=GLITSCH MAX-ACC-DP=.0250000000  &
         MAX-PCT-DCB=100.0000000 MAX-PCT-ENT=10.00000000  &
         MIN-WEIR-LD=4.470981863 MAX-WEIR-LD=117.3721131  &
         MIN-PCT-DCA=.1000000000
     TRAY-SIZE 1 2 5 SIEVE
     INTERNALS CS-2 STAGE1=6 STAGE2=31 P-UPDATE=NO  &
         TRAYTYPE=SIEVE NPASS=1 SYSFAC=1.000000000  &
         OVER-DESIGN=1.000000000 WEIR-HT=50.80000000 <mm>  &
         DC-CLEAR=38.10000000 <mm> DC-WTOP-SIDE=113.3040964 <mm>  &
         DC-WBOT-SIDE=113.3040964 <mm> HOLE-DIAM=12.70000000 <mm>  &
         HOLE-AREA=.1000000000 FLOOD-METH=GLITSCH6  &
         DECK-THICK=0.134 <IN> PCT-FLOOD-FA=80.00000000  &
         AER-PARAM-M=1.000000000 MAX-DC-LOAD=GLITSCH  &
         MAX-ACC-DP=.0250000000 MAX-PCT-DCB=100.0000000  &
         MAX-PCT-ENT=10.00000000 MIN-WEIR-LD=4.470981863  &
         MAX-WEIR-LD=117.3721131 MIN-PCT-DCA=.1000000000
     TRAY-SIZE 2 6 31 SIEVE
     UTILITIES COND-UTIL=REFRIG4 REB-UTIL=LP

 CHANGES WERE MADE TO BLOCK        RADFRAC2 04/17/2025   21:59:58:99 
 BLOCK RADFRAC2 RADFRAC
     SUBOBJECTS INTERNALS = CS-1 CS-2
     PARAM NSTAGE=40 ALGORITHM=STANDARD HYDRAULIC=NO MAXOL=25  &
         DAMPING=NONE
     PARAM2 STATIC-DP=YES OLD-SULZER=NO
     COL-CONFIG CONDENSER=TOTAL CA-CONFIG=INT-1
     FEEDS B1 20
     PRODUCTS B2 40 L / D2 1 L
     P-SPEC 1 213. <kPa>
     COL-SPECS D:F=0.89628999304 MOLE-RR=0.21642182592
     REPORT NOHYDRAULIC
     INTERNALS CS-1 STAGE1=2 STAGE2=26 P-UPDATE=NO  &
         TRAYTYPE=SIEVE NPASS=1 SYSFAC=1.000000000  &
         OVER-DESIGN=1.000000000 WEIR-HT=50.80000000 <mm>  &
         DC-CLEAR=38.10000000 <mm> DC-WTOP-SIDE=124.9384716 <mm>  &
         DC-WBOT-SIDE=124.9384716 <mm> HOLE-DIAM=12.70000000 <mm>  &
         HOLE-AREA=.1000000000 FLOOD-METH=GLITSCH6  &
         DECK-THICK=0.134 <IN> PCT-FLOOD-FA=80.00000000  &
         AER-PARAM-M=1.000000000 MAX-DC-LOAD=GLITSCH  &
         MAX-ACC-DP=.0250000000 MAX-PCT-DCB=100.0000000  &
         MAX-PCT-ENT=10.00000000 MIN-WEIR-LD=4.470981863  &
         MAX-WEIR-LD=117.3721131 MIN-PCT-DCA=.1000000000
     TRAY-SIZE 1 2 26 SIEVE
     INTERNALS CS-2 STAGE1=27 STAGE2=39 P-UPDATE=NO  &
         TRAYTYPE=SIEVE NPASS=1 SYSFAC=1.000000000  &
         OVER-DESIGN=1.000000000 WEIR-HT=50.80000000 <mm>  &
         DC-CLEAR=38.10000000 <mm> DC-WTOP-SIDE=119.4960119 <mm>  &
         DC-WBOT-SIDE=119.4960119 <mm> HOLE-DIAM=12.70000000 <mm>  &
         HOLE-AREA=.1000000000 FLOOD-METH=GLITSCH6  &
         DECK-THICK=0.134 <IN> PCT-FLOOD-FA=80.00000000  &
         AER-PARAM-M=1.000000000 MAX-DC-LOAD=GLITSCH  &
         MAX-ACC-DP=.0250000000 MAX-PCT-DCB=100.0000000  &
         MAX-PCT-ENT=10.00000000 MIN-WEIR-LD=4.470981863  &
         MAX-WEIR-LD=117.3721131 MIN-PCT-DCA=.1000000000
     TRAY-SIZE 2 27 39 SIEVE
     UTILITIES COND-UTIL=REFRIG1 REB-UTIL=LP

 PDF updated                                                                      TIME =      5.32
 THIS COPY OF ASPEN PLUS LICENSED TO JOHNS HOPKINS UNIVERSITY        
 
 


Calculations begin                                                              time      5.62


      UOS BLOCK RADFRAC1 MODEL: RADFRAC                                           TIME =      5.62

       Convergence iterations:
         OL   ML   IL     Err/Tol
          1    1   10     0.82450E+08
          2    1   10      82082.    
          3    1   10      24614.    
          4    1    9      25690.    
          5    1    7      22884.    
          6    1    6      4399.8    
          7    1    6      264.57    
          8    1    5      225.87    
          9    1    4      139.38    
         10    1    4      45.176    
         11    1    4      17.759    
         12    1    3      8.4480    
         13    1    4      3.0815    
         14    1    4     0.59136    

      UOS BLOCK RADFRAC2 MODEL: RADFRAC                                           TIME =      5.64

       Convergence iterations:
         OL   ML   IL     Err/Tol
          1    1    4      2.4803    
          2    1    2     0.53243E-01

      CHECKING PHASE EQUILIBRIUM RESULTS                                          TIME =      5.65

      CHECKING PHASE EQUILIBRIUM RESULTS                                          TIME =      5.65

 STREAM D2      
        SUBSTREAM MIXED     F =  3.134374941339216E-02  T =   278.650426613844      P =   213000.000000000    
                            H =   6289148.95048616      V =   0.00000000000000      L =   1.00000000000000    
                            ENTROPY =  -2093.65265368542      DENSITY =   936.077200341258      MW =   62.4980032879703    
        VINYL-01  3.134338532604826E-02  ACETY-01  2.029239400527607E-12  DICHL-01  6.208428427764632E-14
        OXYGE-01   0.00000000000000      HYDRO-01  3.850077235308251E-12  WATER     3.640814025071802E-07
        NITROGEN   0.00000000000000      CARBONMO   0.00000000000000      METHANE    0.00000000000000    

 STREAM B2      
        SUBSTREAM MIXED     F =  3.626795451313614E-03  T =   285.761546125532      P =   213000.000000000    
                            H =  -31183884.9719520      V =   0.00000000000000      L =   1.00000000000000    
                            ENTROPY =  -2254.04757223772      DENSITY =   1004.03625118630      MW =   70.8102962553805    
        VINYL-01  2.800010394459139E-03  ACETY-01  1.579787060334418E-37  DICHL-01  8.267850568544736E-04
        OXYGE-01   0.00000000000000      HYDRO-01  1.157284228428871E-37  WATER     6.853747800869741E-19
        NITROGEN   0.00000000000000      CARBONMO   0.00000000000000      METHANE    0.00000000000000    


*** INPUT SPECIFICATION MESSAGES ***

 FLOWSHEET    IS GENERATED BECAUSE OF OTHER CHANGES 04/17/2025   22:00:00:99 
 FLOWSHEET
     BLOCK RADFRAC1 IN=FEED OUT=D1 B1
     BLOCK RADFRAC2 IN=B1 OUT=D2 B2

 CHANGES WERE MADE TO BLOCK        RADFRAC1 04/17/2025   22:00:00:99 
 BLOCK RADFRAC1 RADFRAC
     SUBOBJECTS INTERNALS = CS-1 CS-2
     PARAM NSTAGE=35 ALGORITHM=STANDARD HYDRAULIC=NO MAXOL=25  &
         DAMPING=NONE
     PARAM2 STATIC-DP=YES OLD-SULZER=NO
     COL-CONFIG CONDENSER=TOTAL CA-CONFIG=INT-1
     FEEDS FEED 8
     PRODUCTS B1 35 L / D1 1 L
     P-SPEC 1 525. <kPa>
     COL-SPECS D:F=0.47855212194 MOLE-RR=1.0585576906
     REPORT NOHYDRAULIC
     INTERNALS CS-1 STAGE1=2 STAGE2=5 P-UPDATE=NO TRAYTYPE=SIEVE  &
         NPASS=1 SYSFAC=1.000000000 OVER-DESIGN=1.000000000  &
         WEIR-HT=50.80000000 <mm> DC-CLEAR=38.10000000 <mm>  &
         DC-WTOP-SIDE=126.5408967 <mm> DC-WBOT-SIDE=126.5408967 <mm>  &
         HOLE-DIAM=12.70000000 <mm> HOLE-AREA=.1000000000  &
         FLOOD-METH=GLITSCH6 DECK-THICK=0.134 <IN>  &
         PCT-FLOOD-FA=80.00000000 AER-PARAM-M=1.000000000  &
         MAX-DC-LOAD=GLITSCH MAX-ACC-DP=.0250000000  &
         MAX-PCT-DCB=100.0000000 MAX-PCT-ENT=10.00000000  &
         MIN-WEIR-LD=4.470981863 MAX-WEIR-LD=117.3721131  &
         MIN-PCT-DCA=.1000000000
     TRAY-SIZE 1 2 5 SIEVE
     INTERNALS CS-2 STAGE1=6 STAGE2=34 P-UPDATE=NO  &
         TRAYTYPE=SIEVE NPASS=1 SYSFAC=1.000000000  &
         OVER-DESIGN=1.000000000 WEIR-HT=50.80000000 <mm>  &
         DC-CLEAR=38.10000000 <mm> DC-WTOP-SIDE=126.5372699 <mm>  &
         DC-WBOT-SIDE=126.5372699 <mm> HOLE-DIAM=12.70000000 <mm>  &
         HOLE-AREA=.1000000000 FLOOD-METH=GLITSCH6  &
         DECK-THICK=0.134 <IN> PCT-FLOOD-FA=80.00000000  &
         AER-PARAM-M=1.000000000 MAX-DC-LOAD=GLITSCH  &
         MAX-ACC-DP=.0250000000 MAX-PCT-DCB=100.0000000  &
         MAX-PCT-ENT=10.00000000 MIN-WEIR-LD=4.470981863  &
         MAX-WEIR-LD=117.3721131 MIN-PCT-DCA=.1000000000
     TRAY-SIZE 2 6 34 SIEVE
     UTILITIES COND-UTIL=REFRIG4 REB-UTIL=LP

 CHANGES WERE MADE TO BLOCK        RADFRAC2 04/17/2025   22:00:00:99 
 BLOCK RADFRAC2 RADFRAC
     SUBOBJECTS INTERNALS = CS-1 CS-2
     PARAM NSTAGE=37 ALGORITHM=STANDARD HYDRAULIC=NO MAXOL=25  &
         DAMPING=NONE
     PARAM2 STATIC-DP=YES OLD-SULZER=NO
     COL-CONFIG CONDENSER=TOTAL CA-CONFIG=INT-1
     FEEDS B1 34
     PRODUCTS B2 37 L / D2 1 L
     P-SPEC 1 213. <kPa>
     COL-SPECS D:F=0.89588295373 MOLE-RR=0.20380909174
     REPORT NOHYDRAULIC
     INTERNALS CS-1 STAGE1=2 STAGE2=26 P-UPDATE=NO  &
         TRAYTYPE=SIEVE NPASS=1 SYSFAC=1.000000000  &
         OVER-DESIGN=1.000000000 WEIR-HT=50.80000000 <mm>  &
         DC-CLEAR=38.10000000 <mm> DC-WTOP-SIDE=107.7864039 <mm>  &
         DC-WBOT-SIDE=107.7864039 <mm> HOLE-DIAM=12.70000000 <mm>  &
         HOLE-AREA=.1000000000 FLOOD-METH=GLITSCH6  &
         DECK-THICK=0.134 <IN> PCT-FLOOD-FA=80.00000000  &
         AER-PARAM-M=1.000000000 MAX-DC-LOAD=GLITSCH  &
         MAX-ACC-DP=.0250000000 MAX-PCT-DCB=100.0000000  &
         MAX-PCT-ENT=10.00000000 MIN-WEIR-LD=4.470981863  &
         MAX-WEIR-LD=117.3721131 MIN-PCT-DCA=.1000000000
     TRAY-SIZE 1 2 26 SIEVE
     INTERNALS CS-2 STAGE1=27 STAGE2=36 P-UPDATE=NO  &
         TRAYTYPE=SIEVE NPASS=1 SYSFAC=1.000000000  &
         OVER-DESIGN=1.000000000 WEIR-HT=50.80000000 <mm>  &
         DC-CLEAR=38.10000000 <mm> DC-WTOP-SIDE=101.0784366 <mm>  &
         DC-WBOT-SIDE=101.0784366 <mm> HOLE-DIAM=12.70000000 <mm>  &
         HOLE-AREA=.1000000000 FLOOD-METH=GLITSCH6  &
         DECK-THICK=0.134 <IN> PCT-FLOOD-FA=80.00000000  &
         AER-PARAM-M=1.000000000 MAX-DC-LOAD=GLITSCH  &
         MAX-ACC-DP=.0250000000 MAX-PCT-DCB=100.0000000  &
         MAX-PCT-ENT=10.00000000 MIN-WEIR-LD=4.470981863  &
         MAX-WEIR-LD=117.3721131 MIN-PCT-DCA=.1000000000
     TRAY-SIZE 2 27 36 SIEVE
     UTILITIES COND-UTIL=REFRIG1 REB-UTIL=LP

 PDF updated                                                                      TIME =      7.15
 THIS COPY OF ASPEN PLUS LICENSED TO JOHNS HOPKINS UNIVERSITY        
 
 


Calculations begin                                                              time      7.47


      UOS BLOCK RADFRAC1 MODEL: RADFRAC                                           TIME =      7.47

       Convergence iterations:
         OL   ML   IL     Err/Tol
          1    1    5      15.871    
          2    1    3     0.79410    

      UOS BLOCK RADFRAC2 MODEL: RADFRAC                                           TIME =      7.47

       Convergence iterations:
         OL   ML   IL     Err/Tol
          1    1    2     0.30802    

      CHECKING PHASE EQUILIBRIUM RESULTS                                          TIME =      7.47

      CHECKING PHASE EQUILIBRIUM RESULTS                                          TIME =      7.48


*** INPUT SPECIFICATION MESSAGES ***

 FLOWSHEET    IS GENERATED BECAUSE OF OTHER CHANGES 04/17/2025   22:00:02:99 
 FLOWSHEET
     BLOCK RADFRAC1 IN=FEED OUT=D1 B1
     BLOCK RADFRAC2 IN=B1 OUT=D2 B2

 CHANGES WERE MADE TO BLOCK        RADFRAC1 04/17/2025   22:00:02:99 
 BLOCK RADFRAC1 RADFRAC
     SUBOBJECTS INTERNALS = CS-1 CS-2
     PARAM NSTAGE=35 ALGORITHM=STANDARD HYDRAULIC=NO MAXOL=25  &
         DAMPING=NONE
     PARAM2 STATIC-DP=YES OLD-SULZER=NO
     COL-CONFIG CONDENSER=TOTAL CA-CONFIG=INT-1
     FEEDS FEED 6
     PRODUCTS B1 35 L / D1 1 L
     P-SPEC 1 525. <kPa>
     COL-SPECS D:F=0.47872418968 MOLE-RR=0.46964548283
     REPORT NOHYDRAULIC
     INTERNALS CS-1 STAGE1=2 STAGE2=5 P-UPDATE=NO TRAYTYPE=SIEVE  &
         NPASS=1 SYSFAC=1.000000000 OVER-DESIGN=1.000000000  &
         WEIR-HT=50.80000000 <mm> DC-CLEAR=38.10000000 <mm>  &
         DC-WTOP-SIDE=134.5314525 <mm> DC-WBOT-SIDE=134.5314525 <mm>  &
         HOLE-DIAM=12.70000000 <mm> HOLE-AREA=.1000000000  &
         FLOOD-METH=GLITSCH6 DECK-THICK=0.134 <IN>  &
         PCT-FLOOD-FA=80.00000000 AER-PARAM-M=1.000000000  &
         MAX-DC-LOAD=GLITSCH MAX-ACC-DP=.0250000000  &
         MAX-PCT-DCB=100.0000000 MAX-PCT-ENT=10.00000000  &
         MIN-WEIR-LD=4.470981863 MAX-WEIR-LD=117.3721131  &
         MIN-PCT-DCA=.1000000000
     TRAY-SIZE 1 2 5 SIEVE
     INTERNALS CS-2 STAGE1=6 STAGE2=34 P-UPDATE=NO  &
         TRAYTYPE=SIEVE NPASS=1 SYSFAC=1.000000000  &
         OVER-DESIGN=1.000000000 WEIR-HT=50.80000000 <mm>  &
         DC-CLEAR=38.10000000 <mm> DC-WTOP-SIDE=134.5309613 <mm>  &
         DC-WBOT-SIDE=134.5309613 <mm> HOLE-DIAM=12.70000000 <mm>  &
         HOLE-AREA=.1000000000 FLOOD-METH=GLITSCH6  &
         DECK-THICK=0.134 <IN> PCT-FLOOD-FA=80.00000000  &
         AER-PARAM-M=1.000000000 MAX-DC-LOAD=GLITSCH  &
         MAX-ACC-DP=.0250000000 MAX-PCT-DCB=100.0000000  &
         MAX-PCT-ENT=10.00000000 MIN-WEIR-LD=4.470981863  &
         MAX-WEIR-LD=117.3721131 MIN-PCT-DCA=.1000000000
     TRAY-SIZE 2 6 34 SIEVE
     UTILITIES COND-UTIL=REFRIG4 REB-UTIL=LP

 CHANGES WERE MADE TO BLOCK        RADFRAC2 04/17/2025   22:00:02:99 
 BLOCK RADFRAC2 RADFRAC
     SUBOBJECTS INTERNALS = CS-1 CS-2
     PARAM NSTAGE=36 ALGORITHM=STANDARD HYDRAULIC=NO MAXOL=25  &
         DAMPING=NONE
     PARAM2 STATIC-DP=YES OLD-SULZER=NO
     COL-CONFIG CONDENSER=TOTAL CA-CONFIG=INT-1
     FEEDS B1 32
     PRODUCTS B2 36 L / D2 1 L
     P-SPEC 1 213. <kPa>
     COL-SPECS D:F=0.9021777081 MOLE-RR=0.78281915007
     REPORT NOHYDRAULIC
     INTERNALS CS-1 STAGE1=2 STAGE2=26 P-UPDATE=NO  &
         TRAYTYPE=SIEVE NPASS=1 SYSFAC=1.000000000  &
         OVER-DESIGN=1.000000000 WEIR-HT=50.80000000 <mm>  &
         DC-CLEAR=38.10000000 <mm> DC-WTOP-SIDE=106.4345404 <mm>  &
         DC-WBOT-SIDE=106.4345404 <mm> HOLE-DIAM=12.70000000 <mm>  &
         HOLE-AREA=.1000000000 FLOOD-METH=GLITSCH6  &
         DECK-THICK=0.134 <IN> PCT-FLOOD-FA=80.00000000  &
         AER-PARAM-M=1.000000000 MAX-DC-LOAD=GLITSCH  &
         MAX-ACC-DP=.0250000000 MAX-PCT-DCB=100.0000000  &
         MAX-PCT-ENT=10.00000000 MIN-WEIR-LD=4.470981863  &
         MAX-WEIR-LD=117.3721131 MIN-PCT-DCA=.1000000000
     TRAY-SIZE 1 2 26 SIEVE
     INTERNALS CS-2 STAGE1=27 STAGE2=35 P-UPDATE=NO  &
         TRAYTYPE=SIEVE NPASS=1 SYSFAC=1.000000000  &
         OVER-DESIGN=1.000000000 WEIR-HT=50.80000000 <mm>  &
         DC-CLEAR=38.10000000 <mm> DC-WTOP-SIDE=106.4344610 <mm>  &
         DC-WBOT-SIDE=106.4344610 <mm> HOLE-DIAM=12.70000000 <mm>  &
         HOLE-AREA=.1000000000 FLOOD-METH=GLITSCH6  &
         DECK-THICK=0.134 <IN> PCT-FLOOD-FA=80.00000000  &
         AER-PARAM-M=1.000000000 MAX-DC-LOAD=GLITSCH  &
         MAX-ACC-DP=.0250000000 MAX-PCT-DCB=100.0000000  &
         MAX-PCT-ENT=10.00000000 MIN-WEIR-LD=4.470981863  &
         MAX-WEIR-LD=117.3721131 MIN-PCT-DCA=.1000000000
     TRAY-SIZE 2 27 35 SIEVE
     UTILITIES COND-UTIL=REFRIG1 REB-UTIL=LP

 PDF updated                                                                      TIME =      9.43
 THIS COPY OF ASPEN PLUS LICENSED TO JOHNS HOPKINS UNIVERSITY        
 
 


Calculations begin                                                              time      9.76


      UOS BLOCK RADFRAC1 MODEL: RADFRAC                                           TIME =      9.76

       Convergence iterations:
         OL   ML   IL     Err/Tol
          1    1    5      18.087    
          2    1    3     0.71884    

      UOS BLOCK RADFRAC2 MODEL: RADFRAC                                           TIME =      9.77

       Convergence iterations:
         OL   ML   IL     Err/Tol
          1    1    3      1.6887    
          2    1    2     0.40527E-01

      CHECKING PHASE EQUILIBRIUM RESULTS                                          TIME =      9.77

      CHECKING PHASE EQUILIBRIUM RESULTS                                          TIME =      9.77

 STREAM D2      
        SUBSTREAM MIXED     F =  3.110586453007089E-02  T =   278.651355638880      P =   213000.000000000    
                            H =   6292321.67464467      V =   0.00000000000000      L =   1.00000000000000    
                            ENTROPY =  -2093.65071331971      DENSITY =   936.073958767337      MW =   62.4985195458826    
        VINYL-01  3.110586421251950E-02  ACETY-01   0.00000000000000      DICHL-01  1.366656188950739E-31
        OXYGE-01   0.00000000000000      HYDRO-01   0.00000000000000      WATER     3.175513844256413E-10
        NITROGEN   0.00000000000000      CARBONMO   0.00000000000000      METHANE    0.00000000000000    

 STREAM B2      
        SUBSTREAM MIXED     F =  3.372780032739588E-03  T =   286.387951550505      P =   213000.000000000    
                            H =  -33993968.6574957      V =   0.00000000000000      L =   1.00000000000000    
                            ENTROPY =  -2266.45761513486      DENSITY =   1008.65907162053      MW =   71.4361890290760    
        VINYL-01  2.546003770889714E-03  ACETY-01   0.00000000000000      DICHL-01  8.267762618084697E-04
        OXYGE-01   0.00000000000000      HYDRO-01   0.00000000000000      WATER     4.140332337411041E-14
        NITROGEN   0.00000000000000      CARBONMO   0.00000000000000      METHANE    0.00000000000000    


*** INPUT SPECIFICATION MESSAGES ***

 CHANGES WERE MADE TO BLOCK        RADFRAC1 04/17/2025   22:00:04:99 
 BLOCK RADFRAC1 RADFRAC
     SUBOBJECTS INTERNALS = CS-1 CS-2
     PARAM NSTAGE=35 ALGORITHM=STANDARD HYDRAULIC=NO MAXOL=25  &
         DAMPING=NONE
     PARAM2 STATIC-DP=YES OLD-SULZER=NO
     COL-CONFIG CONDENSER=TOTAL CA-CONFIG=INT-1
     FEEDS FEED 8
     PRODUCTS B1 35 L / D1 1 L
     P-SPEC 1 525. <kPa>
     COL-SPECS D:F=0.47854558219 MOLE-RR=1.0600978018
     REPORT NOHYDRAULIC
     INTERNALS CS-1 STAGE1=2 STAGE2=5 P-UPDATE=NO TRAYTYPE=SIEVE  &
         NPASS=1 SYSFAC=1.000000000 OVER-DESIGN=1.000000000  &
         WEIR-HT=50.80000000 <mm> DC-CLEAR=38.10000000 <mm>  &
         DC-WTOP-SIDE=105.2869239 <mm> DC-WBOT-SIDE=105.2869239 <mm>  &
         HOLE-DIAM=12.70000000 <mm> HOLE-AREA=.1000000000  &
         FLOOD-METH=GLITSCH6 DECK-THICK=0.134 <IN>  &
         PCT-FLOOD-FA=80.00000000 AER-PARAM-M=1.000000000  &
         MAX-DC-LOAD=GLITSCH MAX-ACC-DP=.0250000000  &
         MAX-PCT-DCB=100.0000000 MAX-PCT-ENT=10.00000000  &
         MIN-WEIR-LD=4.470981863 MAX-WEIR-LD=117.3721131  &
         MIN-PCT-DCA=.1000000000
     TRAY-SIZE 1 2 5 SIEVE
     INTERNALS CS-2 STAGE1=6 STAGE2=34 P-UPDATE=NO  &
         TRAYTYPE=SIEVE NPASS=1 SYSFAC=1.000000000  &
         OVER-DESIGN=1.000000000 WEIR-HT=50.80000000 <mm>  &
         DC-CLEAR=38.10000000 <mm> DC-WTOP-SIDE=114.7728478 <mm>  &
         DC-WBOT-SIDE=114.7728478 <mm> HOLE-DIAM=12.70000000 <mm>  &
         HOLE-AREA=.1000000000 FLOOD-METH=GLITSCH6  &
         DECK-THICK=0.134 <IN> PCT-FLOOD-FA=80.00000000  &
         AER-PARAM-M=1.000000000 MAX-DC-LOAD=GLITSCH  &
         MAX-ACC-DP=.0250000000 MAX-PCT-DCB=100.0000000  &
         MAX-PCT-ENT=10.00000000 MIN-WEIR-LD=4.470981863  &
         MAX-WEIR-LD=117.3721131 MIN-PCT-DCA=.1000000000
     TRAY-SIZE 2 6 34 SIEVE
     UTILITIES COND-UTIL=REFRIG4 REB-UTIL=LP

 CHANGES WERE MADE TO BLOCK        RADFRAC2 04/17/2025   22:00:04:99 
 BLOCK RADFRAC2 RADFRAC
     SUBOBJECTS INTERNALS = CS-1 CS-2
     PARAM NSTAGE=36 ALGORITHM=STANDARD HYDRAULIC=NO MAXOL=25  &
         DAMPING=NONE
     PARAM2 STATIC-DP=YES OLD-SULZER=NO
     COL-CONFIG CONDENSER=TOTAL CA-CONFIG=INT-1
     FEEDS B1 32
     PRODUCTS B2 36 L / D2 1 L
     P-SPEC 1 213. <kPa>
     COL-SPECS D:F=0.9021777081 MOLE-RR=0.78281915007
     REPORT NOHYDRAULIC
     INTERNALS CS-1 STAGE1=2 STAGE2=26 P-UPDATE=NO  &
         TRAYTYPE=SIEVE NPASS=1 SYSFAC=1.000000000  &
         OVER-DESIGN=1.000000000 WEIR-HT=50.80000000 <mm>  &
         DC-CLEAR=38.10000000 <mm> DC-WTOP-SIDE=131.1419261 <mm>  &
         DC-WBOT-SIDE=131.1419261 <mm> HOLE-DIAM=12.70000000 <mm>  &
         HOLE-AREA=.1000000000 FLOOD-METH=GLITSCH6  &
         DECK-THICK=0.134 <IN> PCT-FLOOD-FA=80.00000000  &
         AER-PARAM-M=1.000000000 MAX-DC-LOAD=GLITSCH  &
         MAX-ACC-DP=.0250000000 MAX-PCT-DCB=100.0000000  &
         MAX-PCT-ENT=10.00000000 MIN-WEIR-LD=4.470981863  &
         MAX-WEIR-LD=117.3721131 MIN-PCT-DCA=.1000000000
     TRAY-SIZE 1 2 26 SIEVE
     INTERNALS CS-2 STAGE1=27 STAGE2=35 P-UPDATE=NO  &
         TRAYTYPE=SIEVE NPASS=1 SYSFAC=1.000000000  &
         OVER-DESIGN=1.000000000 WEIR-HT=50.80000000 <mm>  &
         DC-CLEAR=38.10000000 <mm> DC-WTOP-SIDE=131.1419091 <mm>  &
         DC-WBOT-SIDE=131.1419091 <mm> HOLE-DIAM=12.70000000 <mm>  &
         HOLE-AREA=.1000000000 FLOOD-METH=GLITSCH6  &
         DECK-THICK=0.134 <IN> PCT-FLOOD-FA=80.00000000  &
         AER-PARAM-M=1.000000000 MAX-DC-LOAD=GLITSCH  &
         MAX-ACC-DP=.0250000000 MAX-PCT-DCB=100.0000000  &
         MAX-PCT-ENT=10.00000000 MIN-WEIR-LD=4.470981863  &
         MAX-WEIR-LD=117.3721131 MIN-PCT-DCA=.1000000000
     TRAY-SIZE 2 27 35 SIEVE
     UTILITIES COND-UTIL=REFRIG1 REB-UTIL=LP

 PDF updated                                                                      TIME =     11.52
 THIS COPY OF ASPEN PLUS LICENSED TO JOHNS HOPKINS UNIVERSITY        
 
 


Calculations begin                                                              time     11.81


      UOS BLOCK RADFRAC1 MODEL: RADFRAC                                           TIME =     11.81

       Convergence iterations:
         OL   ML   IL     Err/Tol
          1    1   10      37553.    
          2    1    8      2965.7    
          3    1    6      41878.    
          4    1    6      4062.5    
          5    1    4      698.52    
          6    1    4      375.45    
          7    1    4      164.92    
          8    1    3      56.882    
          9    1    3      9.4371    
         10    1    3      5.1119    
         11    1    3      1.6633    
         12    1    3     0.77905    

      UOS BLOCK RADFRAC2 MODEL: RADFRAC                                           TIME =     11.82

       Convergence iterations:
         OL   ML   IL     Err/Tol
          1    1    2     0.78906E-02

      CHECKING PHASE EQUILIBRIUM RESULTS                                          TIME =     11.82

      CHECKING PHASE EQUILIBRIUM RESULTS                                          TIME =     11.82

 STREAM D2      
        SUBSTREAM MIXED     F =  3.111652249707800E-02  T =   278.651356453322      P =   213000.000000000    
                            H =   6292324.45387973      V =   0.00000000000000      L =   1.00000000000000    
                            ENTROPY =  -2093.65072111192      DENSITY =   936.073955926725      MW =   62.4985199981043    
        VINYL-01  3.111652249575196E-02  ACETY-01   0.00000000000000      DICHL-01  1.366622009627084E-31
        OXYGE-01   0.00000000000000      HYDRO-01   0.00000000000000      WATER     1.326042553881062E-12
        NITROGEN   0.00000000000000      CARBONMO   0.00000000000000      METHANE    0.00000000000000    

 STREAM B2      
        SUBSTREAM MIXED     F =  3.373935666214304E-03  T =   286.385024718533      P =   213000.000000000    
                            H =  -33980645.5807294      V =   0.00000000000000      L =   1.00000000000000    
                            ENTROPY =  -2266.39863399511      DENSITY =   1008.63719742349      MW =   71.4332225885021    
        VINYL-01  2.547150625403764E-03  ACETY-01   0.00000000000000      DICHL-01  8.267850408103669E-04
        OXYGE-01   0.00000000000000      HYDRO-01   0.00000000000000      WATER     1.729747326293705E-16
        NITROGEN   0.00000000000000      CARBONMO   0.00000000000000      METHANE    0.00000000000000    


*** INPUT SPECIFICATION MESSAGES ***

 FLOWSHEET    IS GENERATED BECAUSE OF OTHER CHANGES 04/17/2025   22:00:06:99 
 FLOWSHEET
     BLOCK RADFRAC1 IN=FEED OUT=D1 B1
     BLOCK RADFRAC2 IN=B1 OUT=D2 B2

 CHANGES WERE MADE TO BLOCK        RADFRAC1 04/17/2025   22:00:06:99 
 BLOCK RADFRAC1 RADFRAC
     SUBOBJECTS INTERNALS = CS-1 CS-2
     PARAM NSTAGE=35 ALGORITHM=STANDARD HYDRAULIC=NO MAXOL=25  &
         DAMPING=NONE
     PARAM2 STATIC-DP=YES OLD-SULZER=NO
     COL-CONFIG CONDENSER=TOTAL CA-CONFIG=INT-1
     FEEDS FEED 7
     PRODUCTS B1 35 L / D1 1 L
     P-SPEC 1 525. <kPa>
     COL-SPECS D:F=0.47864911729 MOLE-RR=0.91158323566
     REPORT NOHYDRAULIC
     INTERNALS CS-1 STAGE1=2 STAGE2=5 P-UPDATE=NO TRAYTYPE=SIEVE  &
         NPASS=1 SYSFAC=1.000000000 OVER-DESIGN=1.000000000  &
         WEIR-HT=50.80000000 <mm> DC-CLEAR=38.10000000 <mm>  &
         DC-WTOP-SIDE=134.5877403 <mm> DC-WBOT-SIDE=134.5877403 <mm>  &
         HOLE-DIAM=12.70000000 <mm> HOLE-AREA=.1000000000  &
         FLOOD-METH=GLITSCH6 DECK-THICK=0.134 <IN>  &
         PCT-FLOOD-FA=80.00000000 AER-PARAM-M=1.000000000  &
         MAX-DC-LOAD=GLITSCH MAX-ACC-DP=.0250000000  &
         MAX-PCT-DCB=100.0000000 MAX-PCT-ENT=10.00000000  &
         MIN-WEIR-LD=4.470981863 MAX-WEIR-LD=117.3721131  &
         MIN-PCT-DCA=.1000000000
     TRAY-SIZE 1 2 5 SIEVE
     INTERNALS CS-2 STAGE1=6 STAGE2=34 P-UPDATE=NO  &
         TRAYTYPE=SIEVE NPASS=1 SYSFAC=1.000000000  &
         OVER-DESIGN=1.000000000 WEIR-HT=50.80000000 <mm>  &
         DC-CLEAR=38.10000000 <mm> DC-WTOP-SIDE=134.5979154 <mm>  &
         DC-WBOT-SIDE=134.5979154 <mm> HOLE-DIAM=12.70000000 <mm>  &
         HOLE-AREA=.1000000000 FLOOD-METH=GLITSCH6  &
         DECK-THICK=0.134 <IN> PCT-FLOOD-FA=80.00000000  &
         AER-PARAM-M=1.000000000 MAX-DC-LOAD=GLITSCH  &
         MAX-ACC-DP=.0250000000 MAX-PCT-DCB=100.0000000  &
         MAX-PCT-ENT=10.00000000 MIN-WEIR-LD=4.470981863  &
         MAX-WEIR-LD=117.3721131 MIN-PCT-DCA=.1000000000
     TRAY-SIZE 2 6 34 SIEVE
     UTILITIES COND-UTIL=REFRIG4 REB-UTIL=LP

 CHANGES WERE MADE TO BLOCK        RADFRAC2 04/17/2025   22:00:06:99 
 BLOCK RADFRAC2 RADFRAC
     SUBOBJECTS INTERNALS = CS-1 CS-2
     PARAM NSTAGE=40 ALGORITHM=STANDARD HYDRAULIC=NO MAXOL=25  &
         DAMPING=NONE
     PARAM2 STATIC-DP=YES OLD-SULZER=NO
     COL-CONFIG CONDENSER=TOTAL CA-CONFIG=INT-1
     FEEDS B1 33
     PRODUCTS B2 40 L / D2 1 L
     P-SPEC 1 213. <kPa>
     COL-SPECS D:F=0.90215797368 MOLE-RR=0.21642182592
     REPORT NOHYDRAULIC
     INTERNALS CS-1 STAGE1=2 STAGE2=26 P-UPDATE=NO  &
         TRAYTYPE=SIEVE NPASS=1 SYSFAC=1.000000000  &
         OVER-DESIGN=1.000000000 WEIR-HT=50.80000000 <mm>  &
         DC-CLEAR=38.10000000 <mm> DC-WTOP-SIDE=131.1646892 <mm>  &
         DC-WBOT-SIDE=131.1646892 <mm> HOLE-DIAM=12.70000000 <mm>  &
         HOLE-AREA=.1000000000 FLOOD-METH=GLITSCH6  &
         DECK-THICK=0.134 <IN> PCT-FLOOD-FA=80.00000000  &
         AER-PARAM-M=1.000000000 MAX-DC-LOAD=GLITSCH  &
         MAX-ACC-DP=.0250000000 MAX-PCT-DCB=100.0000000  &
         MAX-PCT-ENT=10.00000000 MIN-WEIR-LD=4.470981863  &
         MAX-WEIR-LD=117.3721131 MIN-PCT-DCA=.1000000000
     TRAY-SIZE 1 2 26 SIEVE
     INTERNALS CS-2 STAGE1=27 STAGE2=39 P-UPDATE=NO  &
         TRAYTYPE=SIEVE NPASS=1 SYSFAC=1.000000000  &
         OVER-DESIGN=1.000000000 WEIR-HT=50.80000000 <mm>  &
         DC-CLEAR=38.10000000 <mm> DC-WTOP-SIDE=131.1646723 <mm>  &
         DC-WBOT-SIDE=131.1646723 <mm> HOLE-DIAM=12.70000000 <mm>  &
         HOLE-AREA=.1000000000 FLOOD-METH=GLITSCH6  &
         DECK-THICK=0.134 <IN> PCT-FLOOD-FA=80.00000000  &
         AER-PARAM-M=1.000000000 MAX-DC-LOAD=GLITSCH  &
         MAX-ACC-DP=.0250000000 MAX-PCT-DCB=100.0000000  &
         MAX-PCT-ENT=10.00000000 MIN-WEIR-LD=4.470981863  &
         MAX-WEIR-LD=117.3721131 MIN-PCT-DCA=.1000000000
     TRAY-SIZE 2 27 39 SIEVE
     UTILITIES COND-UTIL=REFRIG1 REB-UTIL=LP

 PDF updated                                                                      TIME =     13.56
 THIS COPY OF ASPEN PLUS LICENSED TO JOHNS HOPKINS UNIVERSITY        
 
 


Calculations begin                                                              time     13.81


      UOS BLOCK RADFRAC1 MODEL: RADFRAC                                           TIME =     13.81

       Convergence iterations:
         OL   ML   IL     Err/Tol
          1    1    4      1.8329    
          2    1    3     0.24168E-01

      UOS BLOCK RADFRAC2 MODEL: RADFRAC                                           TIME =     13.82

       Convergence iterations:
         OL   ML   IL     Err/Tol
          1    1    4      1.8999    
          2    1    2     0.20103E-01

      CHECKING PHASE EQUILIBRIUM RESULTS                                          TIME =     13.82

      CHECKING PHASE EQUILIBRIUM RESULTS                                          TIME =     13.82

 STREAM D2      
        SUBSTREAM MIXED     F =  3.110966377807807E-02  T =   278.651356450834      P =   213000.000000000    
                            H =   6292324.44538845      V =   0.00000000000000      L =   1.00000000000000    
                            ENTROPY =  -2093.65072107074      DENSITY =   936.073955935403      MW =   62.4985199967227    
        VINYL-01  3.110966377578604E-02  ACETY-01   0.00000000000000      DICHL-01  3.010558024379368E-20
        OXYGE-01   0.00000000000000      HYDRO-01   0.00000000000000      WATER     2.292026463412569E-12
        NITROGEN   0.00000000000000      CARBONMO   0.00000000000000      METHANE    0.00000000000000    

 STREAM B2      
        SUBSTREAM MIXED     F =  3.373946283226782E-03  T =   286.384965025930      P =   213000.000000000    
                            H =  -33980506.5850639      V =   0.00000000000000      L =   1.00000000000000    
                            ENTROPY =  -2266.39816280728      DENSITY =   1008.63701032408      MW =   71.4331908826920    
        VINYL-01  2.547161574661205E-03  ACETY-01   0.00000000000000      DICHL-01  8.267847085655610E-04
        OXYGE-01   0.00000000000000      HYDRO-01   0.00000000000000      WATER     1.482016539077699E-17
        NITROGEN   0.00000000000000      CARBONMO   0.00000000000000      METHANE    0.00000000000000    


*** INPUT SPECIFICATION MESSAGES ***

 FLOWSHEET    IS GENERATED BECAUSE OF OTHER CHANGES 04/17/2025   22:00:08:99 
 FLOWSHEET
     BLOCK RADFRAC1 IN=FEED OUT=D1 B1
     BLOCK RADFRAC2 IN=B1 OUT=D2 B2

 CHANGES WERE MADE TO BLOCK        RADFRAC1 04/17/2025   22:00:08:99 
 BLOCK RADFRAC1 RADFRAC
     SUBOBJECTS INTERNALS = CS-1 CS-2
     PARAM NSTAGE=35 ALGORITHM=STANDARD HYDRAULIC=NO MAXOL=25  &
         DAMPING=NONE
     PARAM2 STATIC-DP=YES OLD-SULZER=NO
     COL-CONFIG CONDENSER=TOTAL CA-CONFIG=INT-1
     FEEDS FEED 10
     PRODUCTS B1 35 L / D1 1 L
     P-SPEC 1 525. <kPa>
     COL-SPECS D:F=0.47348072804 MOLE-RR=0.49092599528
     REPORT NOHYDRAULIC
     INTERNALS CS-1 STAGE1=2 STAGE2=5 P-UPDATE=NO TRAYTYPE=SIEVE  &
         NPASS=1 SYSFAC=1.000000000 OVER-DESIGN=1.000000000  &
         WEIR-HT=50.80000000 <mm> DC-CLEAR=38.10000000 <mm>  &
         DC-WTOP-SIDE=127.7563901 <mm> DC-WBOT-SIDE=127.7563901 <mm>  &
         HOLE-DIAM=12.70000000 <mm> HOLE-AREA=.1000000000  &
         FLOOD-METH=GLITSCH6 DECK-THICK=0.134 <IN>  &
         PCT-FLOOD-FA=80.00000000 AER-PARAM-M=1.000000000  &
         MAX-DC-LOAD=GLITSCH MAX-ACC-DP=.0250000000  &
         MAX-PCT-DCB=100.0000000 MAX-PCT-ENT=10.00000000  &
         MIN-WEIR-LD=4.470981863 MAX-WEIR-LD=117.3721131  &
         MIN-PCT-DCA=.1000000000
     TRAY-SIZE 1 2 5 SIEVE
     INTERNALS CS-2 STAGE1=6 STAGE2=34 P-UPDATE=NO  &
         TRAYTYPE=SIEVE NPASS=1 SYSFAC=1.000000000  &
         OVER-DESIGN=1.000000000 WEIR-HT=50.80000000 <mm>  &
         DC-CLEAR=38.10000000 <mm> DC-WTOP-SIDE=127.7149201 <mm>  &
         DC-WBOT-SIDE=127.7149201 <mm> HOLE-DIAM=12.70000000 <mm>  &
         HOLE-AREA=.1000000000 FLOOD-METH=GLITSCH6  &
         DECK-THICK=0.134 <IN> PCT-FLOOD-FA=80.00000000  &
         AER-PARAM-M=1.000000000 MAX-DC-LOAD=GLITSCH  &
         MAX-ACC-DP=.0250000000 MAX-PCT-DCB=100.0000000  &
         MAX-PCT-ENT=10.00000000 MIN-WEIR-LD=4.470981863  &
         MAX-WEIR-LD=117.3721131 MIN-PCT-DCA=.1000000000
     TRAY-SIZE 2 6 34 SIEVE
     UTILITIES COND-UTIL=REFRIG4 REB-UTIL=LP

 CHANGES WERE MADE TO BLOCK        RADFRAC2 04/17/2025   22:00:08:99 
 BLOCK RADFRAC2 RADFRAC
     SUBOBJECTS INTERNALS = CS-1 CS-2
     PARAM NSTAGE=36 ALGORITHM=STANDARD HYDRAULIC=NO MAXOL=25  &
         DAMPING=NONE
     PARAM2 STATIC-DP=YES OLD-SULZER=NO
     COL-CONFIG CONDENSER=TOTAL CA-CONFIG=INT-1
     FEEDS B1 16
     PRODUCTS B2 36 L / D2 1 L
     P-SPEC 1 213. <kPa>
     COL-SPECS D:F=0.90714663064 MOLE-RR=0.60101562583
     REPORT NOHYDRAULIC
     INTERNALS CS-1 STAGE1=2 STAGE2=26 P-UPDATE=NO  &
         TRAYTYPE=SIEVE NPASS=1 SYSFAC=1.000000000  &
         OVER-DESIGN=1.000000000 WEIR-HT=50.80000000 <mm>  &
         DC-CLEAR=38.10000000 <mm> DC-WTOP-SIDE=107.3815977 <mm>  &
         DC-WBOT-SIDE=107.3815977 <mm> HOLE-DIAM=12.70000000 <mm>  &
         HOLE-AREA=.1000000000 FLOOD-METH=GLITSCH6  &
         DECK-THICK=0.134 <IN> PCT-FLOOD-FA=80.00000000  &
         AER-PARAM-M=1.000000000 MAX-DC-LOAD=GLITSCH  &
         MAX-ACC-DP=.0250000000 MAX-PCT-DCB=100.0000000  &
         MAX-PCT-ENT=10.00000000 MIN-WEIR-LD=4.470981863  &
         MAX-WEIR-LD=117.3721131 MIN-PCT-DCA=.1000000000
     TRAY-SIZE 1 2 26 SIEVE
     INTERNALS CS-2 STAGE1=27 STAGE2=35 P-UPDATE=NO  &
         TRAYTYPE=SIEVE NPASS=1 SYSFAC=1.000000000  &
         OVER-DESIGN=1.000000000 WEIR-HT=50.80000000 <mm>  &
         DC-CLEAR=38.10000000 <mm> DC-WTOP-SIDE=107.3811680 <mm>  &
         DC-WBOT-SIDE=107.3811680 <mm> HOLE-DIAM=12.70000000 <mm>  &
         HOLE-AREA=.1000000000 FLOOD-METH=GLITSCH6  &
         DECK-THICK=0.134 <IN> PCT-FLOOD-FA=80.00000000  &
         AER-PARAM-M=1.000000000 MAX-DC-LOAD=GLITSCH  &
         MAX-ACC-DP=.0250000000 MAX-PCT-DCB=100.0000000  &
         MAX-PCT-ENT=10.00000000 MIN-WEIR-LD=4.470981863  &
         MAX-WEIR-LD=117.3721131 MIN-PCT-DCA=.1000000000
     TRAY-SIZE 2 27 35 SIEVE
     UTILITIES COND-UTIL=REFRIG1 REB-UTIL=LP

 PDF updated                                                                      TIME =     15.32
 THIS COPY OF ASPEN PLUS LICENSED TO JOHNS HOPKINS UNIVERSITY        
 
 


Calculations begin                                                              time     15.64


      UOS BLOCK RADFRAC1 MODEL: RADFRAC                                           TIME =     15.64

       Convergence iterations:
         OL   ML   IL     Err/Tol
          1    1   10      21115.    
          2    1    7      6841.1    
          3    1   10      3702.8    
          4    1    7      55878.    
          5    1    4      1941.9    
          6    1    4      12904.    
          7    1    5      4593.4    
          8    1    5      500.80    
          9    1    4      85.940    
         10    1    3      45.662    
         11    1    3      23.919    
         12    1    4      6.1878    
         13    1    4      2.1979    
         14    1    3     0.66457    

      UOS BLOCK RADFRAC2 MODEL: RADFRAC                                           TIME =     15.65

       Convergence iterations:
         OL   ML   IL     Err/Tol
          1    1    3      2.2445    
          2    1    2     0.32489E-01

      CHECKING PHASE EQUILIBRIUM RESULTS                                          TIME =     15.65

      CHECKING PHASE EQUILIBRIUM RESULTS                                          TIME =     15.65


*** INPUT SPECIFICATION MESSAGES ***

 FLOWSHEET    IS GENERATED BECAUSE OF OTHER CHANGES 04/17/2025   22:00:10:99 
 FLOWSHEET
     BLOCK RADFRAC1 IN=FEED OUT=D1 B1
     BLOCK RADFRAC2 IN=B1 OUT=D2 B2

 CHANGES WERE MADE TO BLOCK        RADFRAC1 04/17/2025   22:00:10:99 
 BLOCK RADFRAC1 RADFRAC
     SUBOBJECTS INTERNALS = CS-1 CS-2
     PARAM NSTAGE=35 ALGORITHM=STANDARD HYDRAULIC=NO MAXOL=25  &
         DAMPING=NONE
     PARAM2 STATIC-DP=YES OLD-SULZER=NO
     COL-CONFIG CONDENSER=TOTAL CA-CONFIG=INT-1
     FEEDS FEED 6
     PRODUCTS B1 35 L / D1 1 L
     P-SPEC 1 525. <kPa>
     COL-SPECS D:F=0.47873072942 MOLE-RR=0.46810537164
     REPORT NOHYDRAULIC
     INTERNALS CS-1 STAGE1=2 STAGE2=5 P-UPDATE=NO TRAYTYPE=SIEVE  &
         NPASS=1 SYSFAC=1.000000000 OVER-DESIGN=1.000000000  &
         WEIR-HT=50.80000000 <mm> DC-CLEAR=38.10000000 <mm>  &
         DC-WTOP-SIDE=105.7511165 <mm> DC-WBOT-SIDE=105.7511165 <mm>  &
         HOLE-DIAM=12.70000000 <mm> HOLE-AREA=.1000000000  &
         FLOOD-METH=GLITSCH6 DECK-THICK=0.134 <IN>  &
         PCT-FLOOD-FA=80.00000000 AER-PARAM-M=1.000000000  &
         MAX-DC-LOAD=GLITSCH MAX-ACC-DP=.0250000000  &
         MAX-PCT-DCB=100.0000000 MAX-PCT-ENT=10.00000000  &
         MIN-WEIR-LD=4.470981863 MAX-WEIR-LD=117.3721131  &
         MIN-PCT-DCA=.1000000000
     TRAY-SIZE 1 2 5 SIEVE
     INTERNALS CS-2 STAGE1=6 STAGE2=34 P-UPDATE=NO  &
         TRAYTYPE=SIEVE NPASS=1 SYSFAC=1.000000000  &
         OVER-DESIGN=1.000000000 WEIR-HT=50.80000000 <mm>  &
         DC-CLEAR=38.10000000 <mm> DC-WTOP-SIDE=113.3050071 <mm>  &
         DC-WBOT-SIDE=113.3050071 <mm> HOLE-DIAM=12.70000000 <mm>  &
         HOLE-AREA=.1000000000 FLOOD-METH=GLITSCH6  &
         DECK-THICK=0.134 <IN> PCT-FLOOD-FA=80.00000000  &
         AER-PARAM-M=1.000000000 MAX-DC-LOAD=GLITSCH  &
         MAX-ACC-DP=.0250000000 MAX-PCT-DCB=100.0000000  &
         MAX-PCT-ENT=10.00000000 MIN-WEIR-LD=4.470981863  &
         MAX-WEIR-LD=117.3721131 MIN-PCT-DCA=.1000000000
     TRAY-SIZE 2 6 34 SIEVE
     UTILITIES COND-UTIL=REFRIG4 REB-UTIL=LP

 CHANGES WERE MADE TO BLOCK        RADFRAC2 04/17/2025   22:00:10:99 
 BLOCK RADFRAC2 RADFRAC
     SUBOBJECTS INTERNALS = CS-1 CS-2
     PARAM NSTAGE=37 ALGORITHM=STANDARD HYDRAULIC=NO MAXOL=25  &
         DAMPING=NONE
     PARAM2 STATIC-DP=YES OLD-SULZER=NO
     COL-CONFIG CONDENSER=TOTAL CA-CONFIG=INT-1
     FEEDS B1 34
     PRODUCTS B2 37 L / D2 1 L
     P-SPEC 1 213. <kPa>
     COL-SPECS D:F=0.89588295373 MOLE-RR=0.20040386928
     REPORT NOHYDRAULIC
     INTERNALS CS-1 STAGE1=2 STAGE2=26 P-UPDATE=NO  &
         TRAYTYPE=SIEVE NPASS=1 SYSFAC=1.000000000  &
         OVER-DESIGN=1.000000000 WEIR-HT=50.80000000 <mm>  &
         DC-CLEAR=38.10000000 <mm> DC-WTOP-SIDE=124.9384716 <mm>  &
         DC-WBOT-SIDE=124.9384716 <mm> HOLE-DIAM=12.70000000 <mm>  &
         HOLE-AREA=.1000000000 FLOOD-METH=GLITSCH6  &
         DECK-THICK=0.134 <IN> PCT-FLOOD-FA=80.00000000  &
         AER-PARAM-M=1.000000000 MAX-DC-LOAD=GLITSCH  &
         MAX-ACC-DP=.0250000000 MAX-PCT-DCB=100.0000000  &
         MAX-PCT-ENT=10.00000000 MIN-WEIR-LD=4.470981863  &
         MAX-WEIR-LD=117.3721131 MIN-PCT-DCA=.1000000000
     TRAY-SIZE 1 2 26 SIEVE
     INTERNALS CS-2 STAGE1=27 STAGE2=36 P-UPDATE=NO  &
         TRAYTYPE=SIEVE NPASS=1 SYSFAC=1.000000000  &
         OVER-DESIGN=1.000000000 WEIR-HT=50.80000000 <mm>  &
         DC-CLEAR=38.10000000 <mm> DC-WTOP-SIDE=119.4961511 <mm>  &
         DC-WBOT-SIDE=119.4961511 <mm> HOLE-DIAM=12.70000000 <mm>  &
         HOLE-AREA=.1000000000 FLOOD-METH=GLITSCH6  &
         DECK-THICK=0.134 <IN> PCT-FLOOD-FA=80.00000000  &
         AER-PARAM-M=1.000000000 MAX-DC-LOAD=GLITSCH  &
         MAX-ACC-DP=.0250000000 MAX-PCT-DCB=100.0000000  &
         MAX-PCT-ENT=10.00000000 MIN-WEIR-LD=4.470981863  &
         MAX-WEIR-LD=117.3721131 MIN-PCT-DCA=.1000000000
     TRAY-SIZE 2 27 36 SIEVE
     UTILITIES COND-UTIL=REFRIG1 REB-UTIL=LP

 PDF updated                                                                      TIME =     17.33
 THIS COPY OF ASPEN PLUS LICENSED TO JOHNS HOPKINS UNIVERSITY        
 
 


Calculations begin                                                              time     17.59


      UOS BLOCK RADFRAC1 MODEL: RADFRAC                                           TIME =     17.59

       Convergence iterations:
         OL   ML   IL     Err/Tol
          1    1    5      10.881    
          2    1    3     0.56393    

      UOS BLOCK RADFRAC2 MODEL: RADFRAC                                           TIME =     17.60

       Convergence iterations:
         OL   ML   IL     Err/Tol
          1    1    4      2.6079    
          2    1    2     0.59273E-01

      CHECKING PHASE EQUILIBRIUM RESULTS                                          TIME =     17.60

      CHECKING PHASE EQUILIBRIUM RESULTS                                          TIME =     17.60


*** INPUT SPECIFICATION MESSAGES ***

 FLOWSHEET    IS GENERATED BECAUSE OF OTHER CHANGES 04/17/2025   22:00:12:99 
 FLOWSHEET
     BLOCK RADFRAC1 IN=FEED OUT=D1 B1
     BLOCK RADFRAC2 IN=B1 OUT=D2 B2

 CHANGES WERE MADE TO BLOCK        RADFRAC1 04/17/2025   22:00:12:99 
 BLOCK RADFRAC1 RADFRAC
     SUBOBJECTS INTERNALS = CS-1 CS-2
     PARAM NSTAGE=32 ALGORITHM=STANDARD HYDRAULIC=NO MAXOL=25  &
         DAMPING=NONE
     PARAM2 STATIC-DP=YES OLD-SULZER=NO
     COL-CONFIG CONDENSER=TOTAL CA-CONFIG=INT-1
     FEEDS FEED 24
     PRODUCTS B1 32 L / D1 1 L
     P-SPEC 1 525. <kPa>
     COL-SPECS D:F=0.47136231238 MOLE-RR=0.46964548283
     REPORT NOHYDRAULIC
     INTERNALS CS-1 STAGE1=2 STAGE2=5 P-UPDATE=NO TRAYTYPE=SIEVE  &
         NPASS=1 SYSFAC=1.000000000 OVER-DESIGN=1.000000000  &
         WEIR-HT=50.80000000 <mm> DC-CLEAR=38.10000000 <mm>  &
         DC-WTOP-SIDE=105.2000000 <mm> DC-WBOT-SIDE=105.2000000 <mm>  &
         HOLE-DIAM=12.70000000 <mm> HOLE-AREA=.1000000000  &
         FLOOD-METH=GLITSCH6 DECK-THICK=0.134 <IN>  &
         PCT-FLOOD-FA=80.00000000 AER-PARAM-M=1.000000000  &
         MAX-DC-LOAD=GLITSCH MAX-ACC-DP=.0250000000  &
         MAX-PCT-DCB=100.0000000 MAX-PCT-ENT=10.00000000  &
         MIN-WEIR-LD=4.470981863 MAX-WEIR-LD=117.3721131  &
         MIN-PCT-DCA=.1000000000
     TRAY-SIZE 1 2 5 SIEVE
     INTERNALS CS-2 STAGE1=6 STAGE2=31 P-UPDATE=NO  &
         TRAYTYPE=SIEVE NPASS=1 SYSFAC=1.000000000  &
         OVER-DESIGN=1.000000000 WEIR-HT=50.80000000 <mm>  &
         DC-CLEAR=38.10000000 <mm> DC-WTOP-SIDE=114.7287380 <mm>  &
         DC-WBOT-SIDE=114.7287380 <mm> HOLE-DIAM=12.70000000 <mm>  &
         HOLE-AREA=.1000000000 FLOOD-METH=GLITSCH6  &
         DECK-THICK=0.134 <IN> PCT-FLOOD-FA=80.00000000  &
         AER-PARAM-M=1.000000000 MAX-DC-LOAD=GLITSCH  &
         MAX-ACC-DP=.0250000000 MAX-PCT-DCB=100.0000000  &
         MAX-PCT-ENT=10.00000000 MIN-WEIR-LD=4.470981863  &
         MAX-WEIR-LD=117.3721131 MIN-PCT-DCA=.1000000000
     TRAY-SIZE 2 6 31 SIEVE
     UTILITIES COND-UTIL=REFRIG4 REB-UTIL=LP

 CHANGES WERE MADE TO BLOCK        RADFRAC2 04/17/2025   22:00:12:99 
 BLOCK RADFRAC2 RADFRAC
     SUBOBJECTS INTERNALS = CS-1 CS-2
     PARAM NSTAGE=36 ALGORITHM=STANDARD HYDRAULIC=NO MAXOL=25  &
         DAMPING=NONE
     PARAM2 STATIC-DP=YES OLD-SULZER=NO
     COL-CONFIG CONDENSER=TOTAL CA-CONFIG=INT-1
     FEEDS B1 20
     PRODUCTS B2 36 L / D2 1 L
     P-SPEC 1 213. <kPa>
     COL-SPECS D:F=0.89630972746 MOLE-RR=0.78281915007
     REPORT NOHYDRAULIC
     INTERNALS CS-1 STAGE1=2 STAGE2=26 P-UPDATE=NO  &
         TRAYTYPE=SIEVE NPASS=1 SYSFAC=1.000000000  &
         OVER-DESIGN=1.000000000 WEIR-HT=50.80000000 <mm>  &
         DC-CLEAR=38.10000000 <mm> DC-WTOP-SIDE=106.2587645 <mm>  &
         DC-WBOT-SIDE=106.2587645 <mm> HOLE-DIAM=12.70000000 <mm>  &
         HOLE-AREA=.1000000000 FLOOD-METH=GLITSCH6  &
         DECK-THICK=0.134 <IN> PCT-FLOOD-FA=80.00000000  &
         AER-PARAM-M=1.000000000 MAX-DC-LOAD=GLITSCH  &
         MAX-ACC-DP=.0250000000 MAX-PCT-DCB=100.0000000  &
         MAX-PCT-ENT=10.00000000 MIN-WEIR-LD=4.470981863  &
         MAX-WEIR-LD=117.3721131 MIN-PCT-DCA=.1000000000
     TRAY-SIZE 1 2 26 SIEVE
     INTERNALS CS-2 STAGE1=27 STAGE2=35 P-UPDATE=NO  &
         TRAYTYPE=SIEVE NPASS=1 SYSFAC=1.000000000  &
         OVER-DESIGN=1.000000000 WEIR-HT=50.80000000 <mm>  &
         DC-CLEAR=38.10000000 <mm> DC-WTOP-SIDE=106.2585473 <mm>  &
         DC-WBOT-SIDE=106.2585473 <mm> HOLE-DIAM=12.70000000 <mm>  &
         HOLE-AREA=.1000000000 FLOOD-METH=GLITSCH6  &
         DECK-THICK=0.134 <IN> PCT-FLOOD-FA=80.00000000  &
         AER-PARAM-M=1.000000000 MAX-DC-LOAD=GLITSCH  &
         MAX-ACC-DP=.0250000000 MAX-PCT-DCB=100.0000000  &
         MAX-PCT-ENT=10.00000000 MIN-WEIR-LD=4.470981863  &
         MAX-WEIR-LD=117.3721131 MIN-PCT-DCA=.1000000000
     TRAY-SIZE 2 27 35 SIEVE
     UTILITIES COND-UTIL=REFRIG1 REB-UTIL=LP

 PDF updated                                                                      TIME =     19.31
 THIS COPY OF ASPEN PLUS LICENSED TO JOHNS HOPKINS UNIVERSITY        
 
 


Calculations begin                                                              time     19.62


      UOS BLOCK RADFRAC1 MODEL: RADFRAC                                           TIME =     19.62

       Convergence iterations:
         OL   ML   IL     Err/Tol
          1    1   10     0.13478E+06
          2    1    6      10244.    
          3    1    6      5820.9    
          4    1    4      2679.6    
          5    1    4      621.30    
          6    1    4      428.29    
          7    1    4      207.24    
          8    1    3      46.934    
          9    1    4      46.831    
         10    1    3      32.086    
         11    1    3      15.515    
         12    1    3      5.1483    
         13    1    3      4.1251    
         14    1    3      2.5618    
         15    1    2     0.93976    

      UOS BLOCK RADFRAC2 MODEL: RADFRAC                                           TIME =     19.64

       Convergence iterations:
         OL   ML   IL     Err/Tol
          1    1    3      2.7739    
          2    1    2     0.11757E-01

      CHECKING PHASE EQUILIBRIUM RESULTS                                          TIME =     19.64

      CHECKING PHASE EQUILIBRIUM RESULTS                                          TIME =     19.64

 STREAM D2      
        SUBSTREAM MIXED     F =  3.133998928451626E-02  T =   278.645902591338      P =   213000.000000000    
                            H =   6273620.78629020      V =   0.00000000000000      L =   1.00000000000000    
                            ENTROPY =  -2093.67817861078      DENSITY =   936.093027650634      MW =   62.4954764121682    
        VINYL-01  3.133784495736525E-02  ACETY-01  1.407137352083464E-11  DICHL-01  4.705481103094369E-21
        OXYGE-01   0.00000000000000      HYDRO-01  2.691039895843366E-11  WATER     2.144286169237775E-06
        NITROGEN   0.00000000000000      CARBONMO   0.00000000000000      METHANE    0.00000000000000    

 STREAM B2      
        SUBSTREAM MIXED     F =  3.625590497071965E-03  T =   285.764224496368      P =   213000.000000000    
                            H =  -31196300.1400394      V =   0.00000000000000      L =   1.00000000000000    
                            ENTROPY =  -2254.10290452675      DENSITY =   1004.05689835789      MW =   70.8130590941782    
        VINYL-01  2.798805396004174E-03  ACETY-01  1.360804981359387E-32  DICHL-01  8.267851010676604E-04
        OXYGE-01   0.00000000000000      HYDRO-01  1.191636074686619E-32  WATER     1.311358793430672E-16
        NITROGEN   0.00000000000000      CARBONMO   0.00000000000000      METHANE    0.00000000000000    


*** INPUT SPECIFICATION MESSAGES ***

 FLOWSHEET    IS GENERATED BECAUSE OF OTHER CHANGES 04/17/2025   22:00:14:99 
 FLOWSHEET
     BLOCK RADFRAC1 IN=FEED OUT=D1 B1
     BLOCK RADFRAC2 IN=B1 OUT=D2 B2

 CHANGES WERE MADE TO BLOCK        RADFRAC1 04/17/2025   22:00:14:99 
 BLOCK RADFRAC1 RADFRAC
     SUBOBJECTS INTERNALS = CS-1 CS-2
     PARAM NSTAGE=32 ALGORITHM=STANDARD HYDRAULIC=NO MAXOL=25  &
         DAMPING=NONE
     PARAM2 STATIC-DP=YES OLD-SULZER=NO
     COL-CONFIG CONDENSER=TOTAL CA-CONFIG=INT-1
     FEEDS FEED 7
     PRODUCTS B1 32 L / D1 1 L
     P-SPEC 1 525. <kPa>
     COL-SPECS D:F=0.47135254281 MOLE-RR=0.91158323566
     REPORT NOHYDRAULIC
     INTERNALS CS-1 STAGE1=2 STAGE2=5 P-UPDATE=NO TRAYTYPE=SIEVE  &
         NPASS=1 SYSFAC=1.000000000 OVER-DESIGN=1.000000000  &
         WEIR-HT=50.80000000 <mm> DC-CLEAR=38.10000000 <mm>  &
         DC-WTOP-SIDE=104.3022822 <mm> DC-WBOT-SIDE=104.3022822 <mm>  &
         HOLE-DIAM=12.70000000 <mm> HOLE-AREA=.1000000000  &
         FLOOD-METH=GLITSCH6 DECK-THICK=0.134 <IN>  &
         PCT-FLOOD-FA=80.00000000 AER-PARAM-M=1.000000000  &
         MAX-DC-LOAD=GLITSCH MAX-ACC-DP=.0250000000  &
         MAX-PCT-DCB=100.0000000 MAX-PCT-ENT=10.00000000  &
         MIN-WEIR-LD=4.470981863 MAX-WEIR-LD=117.3721131  &
         MIN-PCT-DCA=.1000000000
     TRAY-SIZE 1 2 5 SIEVE
     INTERNALS CS-2 STAGE1=6 STAGE2=31 P-UPDATE=NO  &
         TRAYTYPE=SIEVE NPASS=1 SYSFAC=1.000000000  &
         OVER-DESIGN=1.000000000 WEIR-HT=50.80000000 <mm>  &
         DC-CLEAR=38.10000000 <mm> DC-WTOP-SIDE=112.5767678 <mm>  &
         DC-WBOT-SIDE=112.5767678 <mm> HOLE-DIAM=12.70000000 <mm>  &
         HOLE-AREA=.1000000000 FLOOD-METH=GLITSCH6  &
         DECK-THICK=0.134 <IN> PCT-FLOOD-FA=80.00000000  &
         AER-PARAM-M=1.000000000 MAX-DC-LOAD=GLITSCH  &
         MAX-ACC-DP=.0250000000 MAX-PCT-DCB=100.0000000  &
         MAX-PCT-ENT=10.00000000 MIN-WEIR-LD=4.470981863  &
         MAX-WEIR-LD=117.3721131 MIN-PCT-DCA=.1000000000
     TRAY-SIZE 2 6 31 SIEVE
     UTILITIES COND-UTIL=REFRIG4 REB-UTIL=LP

 CHANGES WERE MADE TO BLOCK        RADFRAC2 04/17/2025   22:00:14:99 
 BLOCK RADFRAC2 RADFRAC
     SUBOBJECTS INTERNALS = CS-1 CS-2
     PARAM NSTAGE=40 ALGORITHM=STANDARD HYDRAULIC=NO MAXOL=25  &
         DAMPING=NONE
     PARAM2 STATIC-DP=YES OLD-SULZER=NO
     COL-CONFIG CONDENSER=TOTAL CA-CONFIG=INT-1
     FEEDS B1 20
     PRODUCTS B2 40 L / D2 1 L
     P-SPEC 1 213. <kPa>
     COL-SPECS D:F=0.89623630915 MOLE-RR=0.21642182592
     REPORT NOHYDRAULIC
     INTERNALS CS-1 STAGE1=2 STAGE2=26 P-UPDATE=NO  &
         TRAYTYPE=SIEVE NPASS=1 SYSFAC=1.000000000  &
         OVER-DESIGN=1.000000000 WEIR-HT=50.80000000 <mm>  &
         DC-CLEAR=38.10000000 <mm> DC-WTOP-SIDE=131.6400080 <mm>  &
         DC-WBOT-SIDE=131.6400080 <mm> HOLE-DIAM=12.70000000 <mm>  &
         HOLE-AREA=.1000000000 FLOOD-METH=GLITSCH6  &
         DECK-THICK=0.134 <IN> PCT-FLOOD-FA=80.00000000  &
         AER-PARAM-M=1.000000000 MAX-DC-LOAD=GLITSCH  &
         MAX-ACC-DP=.0250000000 MAX-PCT-DCB=100.0000000  &
         MAX-PCT-ENT=10.00000000 MIN-WEIR-LD=4.470981863  &
         MAX-WEIR-LD=117.3721131 MIN-PCT-DCA=.1000000000
     TRAY-SIZE 1 2 26 SIEVE
     INTERNALS CS-2 STAGE1=27 STAGE2=39 P-UPDATE=NO  &
         TRAYTYPE=SIEVE NPASS=1 SYSFAC=1.000000000  &
         OVER-DESIGN=1.000000000 WEIR-HT=50.80000000 <mm>  &
         DC-CLEAR=38.10000000 <mm> DC-WTOP-SIDE=126.5715038 <mm>  &
[...]
     FEEDS FEED 22
     PRODUCTS B1 32 L / D1 1 L
     P-SPEC 1 525. <kPa>
     COL-SPECS D:F=0.47128706957 MOLE-RR=0.46964548283
     REPORT NOHYDRAULIC
     INTERNALS CS-1 STAGE1=2 STAGE2=5 P-UPDATE=NO TRAYTYPE=SIEVE  &
         NPASS=1 SYSFAC=1.000000000 OVER-DESIGN=1.000000000  &
         WEIR-HT=50.80000000 <mm> DC-CLEAR=38.10000000 <mm>  &
         DC-WTOP-SIDE=127.7084628 <mm> DC-WBOT-SIDE=127.7084628 <mm>  &
         HOLE-DIAM=12.70000000 <mm> HOLE-AREA=.1000000000  &
         FLOOD-METH=GLITSCH6 DECK-THICK=0.134 <IN>  &
         PCT-FLOOD-FA=80.00000000 AER-PARAM-M=1.000000000  &
         MAX-DC-LOAD=GLITSCH MAX-ACC-DP=.0250000000  &
         MAX-PCT-DCB=100.0000000 MAX-PCT-ENT=10.00000000  &
         MIN-WEIR-LD=4.470981863 MAX-WEIR-LD=117.3721131  &
         MIN-PCT-DCA=.1000000000
     TRAY-SIZE 1 2 5 SIEVE
     INTERNALS CS-2 STAGE1=6 STAGE2=31 P-UPDATE=NO  &
         TRAYTYPE=SIEVE NPASS=1 SYSFAC=1.000000000  &
         OVER-DESIGN=1.000000000 WEIR-HT=50.80000000 <mm>  &
         DC-CLEAR=38.10000000 <mm> DC-WTOP-SIDE=127.7156149 <mm>  &
         DC-WBOT-SIDE=127.7156149 <mm> HOLE-DIAM=12.70000000 <mm>  &
         HOLE-AREA=.1000000000 FLOOD-METH=GLITSCH6  &
         DECK-THICK=0.134 <IN> PCT-FLOOD-FA=80.00000000  &
         AER-PARAM-M=1.000000000 MAX-DC-LOAD=GLITSCH  &
         MAX-ACC-DP=.0250000000 MAX-PCT-DCB=100.0000000  &
         MAX-PCT-ENT=10.00000000 MIN-WEIR-LD=4.470981863  &
         MAX-WEIR-LD=117.3721131 MIN-PCT-DCA=.1000000000
     TRAY-SIZE 2 6 31 SIEVE
     UTILITIES COND-UTIL=REFRIG4 REB-UTIL=LP

 CHANGES WERE MADE TO BLOCK        RADFRAC2 04/17/2025   22:00:39:99 
 BLOCK RADFRAC2 RADFRAC
     SUBOBJECTS INTERNALS = CS-1 CS-2
     PARAM NSTAGE=36 ALGORITHM=STANDARD HYDRAULIC=NO MAXOL=25  &
         DAMPING=NONE
     PARAM2 STATIC-DP=YES OLD-SULZER=NO
     COL-CONFIG CONDENSER=TOTAL CA-CONFIG=INT-1
     FEEDS B1 20
     PRODUCTS B2 36 L / D2 1 L
     P-SPEC 1 213. <kPa>
     COL-SPECS D:F=0.89692286392 MOLE-RR=0.78302385523
     REPORT NOHYDRAULIC
     INTERNALS CS-1 STAGE1=2 STAGE2=26 P-UPDATE=NO  &
         TRAYTYPE=SIEVE NPASS=1 SYSFAC=1.000000000  &
         OVER-DESIGN=1.000000000 WEIR-HT=50.80000000 <mm>  &
         DC-CLEAR=38.10000000 <mm> DC-WTOP-SIDE=107.7051457 <mm>  &
         DC-WBOT-SIDE=107.7051457 <mm> HOLE-DIAM=12.70000000 <mm>  &
         HOLE-AREA=.1000000000 FLOOD-METH=GLITSCH6  &
         DECK-THICK=0.134 <IN> PCT-FLOOD-FA=80.00000000  &
         AER-PARAM-M=1.000000000 MAX-DC-LOAD=GLITSCH  &
         MAX-ACC-DP=.0250000000 MAX-PCT-DCB=100.0000000  &
         MAX-PCT-ENT=10.00000000 MIN-WEIR-LD=4.470981863  &
         MAX-WEIR-LD=117.3721131 MIN-PCT-DCA=.1000000000
     TRAY-SIZE 1 2 26 SIEVE
     INTERNALS CS-2 STAGE1=27 STAGE2=35 P-UPDATE=NO  &
         TRAYTYPE=SIEVE NPASS=1 SYSFAC=1.000000000  &
         OVER-DESIGN=1.000000000 WEIR-HT=50.80000000 <mm>  &
         DC-CLEAR=38.10000000 <mm> DC-WTOP-SIDE=107.7048050 <mm>  &
         DC-WBOT-SIDE=107.7048050 <mm> HOLE-DIAM=12.70000000 <mm>  &
         HOLE-AREA=.1000000000 FLOOD-METH=GLITSCH6  &
         DECK-THICK=0.134 <IN> PCT-FLOOD-FA=80.00000000  &
         AER-PARAM-M=1.000000000 MAX-DC-LOAD=GLITSCH  &
         MAX-ACC-DP=.0250000000 MAX-PCT-DCB=100.0000000  &
         MAX-PCT-ENT=10.00000000 MIN-WEIR-LD=4.470981863  &
         MAX-WEIR-LD=117.3721131 MIN-PCT-DCA=.1000000000
     TRAY-SIZE 2 27 35 SIEVE
     UTILITIES COND-UTIL=REFRIG1 REB-UTIL=LP

 PDF updated                                                                      TIME =     46.23
 THIS COPY OF ASPEN PLUS LICENSED TO JOHNS HOPKINS UNIVERSITY        
 
 


Calculations begin                                                              time     46.47


      UOS BLOCK RADFRAC1 MODEL: RADFRAC                                           TIME =     46.47

       Convergence iterations:
         OL   ML   IL     Err/Tol
          1    1    6      20.182    
          2    1    3     0.33702    

      UOS BLOCK RADFRAC2 MODEL: RADFRAC                                           TIME =     46.47

       Convergence iterations:
         OL   ML   IL     Err/Tol
          1    1    3      2.8302    
          2    1    2     0.17238E-01

      CHECKING PHASE EQUILIBRIUM RESULTS                                          TIME =     46.48

      CHECKING PHASE EQUILIBRIUM RESULTS                                          TIME =     46.48

 STREAM D2      
        SUBSTREAM MIXED     F =  3.136589173562132E-02  T =   278.648833848911      P =   213000.000000000    
                            H =   6283696.14292071      V =   0.00000000000000      L =   1.00000000000000    
                            ENTROPY =  -2093.66015898603      DENSITY =   936.082765062529      MW =   62.4971160036656    
        VINYL-01  3.136490175353009E-02  ACETY-01  3.678502721885088E-13  DICHL-01  4.698936667219101E-21
        OXYGE-01   0.00000000000000      HYDRO-01  5.956508077826058E-13  WATER     9.899811277291542E-07
        NITROGEN   0.00000000000000      CARBONMO   0.00000000000000      METHANE    0.00000000000000    

 STREAM B2      
        SUBSTREAM MIXED     F =  3.604664816518201E-03  T =   285.812019309356      P =   213000.000000000    
                            H =  -31413075.2396162      V =   0.00000000000000      L =   1.00000000000000    
                            ENTROPY =  -2255.06381707925      DENSITY =   1004.41581731920      MW =   70.8613264806874    
        VINYL-01  2.777879705552263E-03  ACETY-01  3.500917541546014E-34  DICHL-01  8.267851109658772E-04
        OXYGE-01   0.00000000000000      HYDRO-01  2.595917539611981E-34  WATER     5.967718817217193E-17
        NITROGEN   0.00000000000000      CARBONMO   0.00000000000000      METHANE    0.00000000000000    


*** INPUT SPECIFICATION MESSAGES ***

 FLOWSHEET    IS GENERATED BECAUSE OF OTHER CHANGES 04/17/2025   22:00:41:99 
 FLOWSHEET
     BLOCK RADFRAC1 IN=FEED OUT=D1 B1
     BLOCK RADFRAC2 IN=B1 OUT=D2 B2

 CHANGES WERE MADE TO BLOCK        RADFRAC1 04/17/2025   22:00:41:99 
 BLOCK RADFRAC1 RADFRAC
     SUBOBJECTS INTERNALS = CS-1 CS-2
     PARAM NSTAGE=32 ALGORITHM=STANDARD HYDRAULIC=NO MAXOL=25  &
         DAMPING=NONE
     PARAM2 STATIC-DP=YES OLD-SULZER=NO
     COL-CONFIG CONDENSER=TOTAL CA-CONFIG=INT-1
     FEEDS FEED 24
     PRODUCTS B1 32 L / D1 1 L
     P-SPEC 1 525. <kPa>
     COL-SPECS D:F=0.47137899525 MOLE-RR=0.91124931133
     REPORT NOHYDRAULIC
     INTERNALS CS-1 STAGE1=2 STAGE2=5 P-UPDATE=NO TRAYTYPE=SIEVE  &
         NPASS=1 SYSFAC=1.000000000 OVER-DESIGN=1.000000000  &
         WEIR-HT=50.80000000 <mm> DC-CLEAR=38.10000000 <mm>  &
         DC-WTOP-SIDE=104.2935912 <mm> DC-WBOT-SIDE=104.2935912 <mm>  &
         HOLE-DIAM=12.70000000 <mm> HOLE-AREA=.1000000000  &
         FLOOD-METH=GLITSCH6 DECK-THICK=0.134 <IN>  &
         PCT-FLOOD-FA=80.00000000 AER-PARAM-M=1.000000000  &
         MAX-DC-LOAD=GLITSCH MAX-ACC-DP=.0250000000  &
         MAX-PCT-DCB=100.0000000 MAX-PCT-ENT=10.00000000  &
         MIN-WEIR-LD=4.470981863 MAX-WEIR-LD=117.3721131  &
         MIN-PCT-DCA=.1000000000
     TRAY-SIZE 1 2 5 SIEVE
     INTERNALS CS-2 STAGE1=6 STAGE2=31 P-UPDATE=NO  &
         TRAYTYPE=SIEVE NPASS=1 SYSFAC=1.000000000  &
         OVER-DESIGN=1.000000000 WEIR-HT=50.80000000 <mm>  &
         DC-CLEAR=38.10000000 <mm> DC-WTOP-SIDE=112.5943809 <mm>  &
         DC-WBOT-SIDE=112.5943809 <mm> HOLE-DIAM=12.70000000 <mm>  &
         HOLE-AREA=.1000000000 FLOOD-METH=GLITSCH6  &
         DECK-THICK=0.134 <IN> PCT-FLOOD-FA=80.00000000  &
         AER-PARAM-M=1.000000000 MAX-DC-LOAD=GLITSCH  &
         MAX-ACC-DP=.0250000000 MAX-PCT-DCB=100.0000000  &
         MAX-PCT-ENT=10.00000000 MIN-WEIR-LD=4.470981863  &
         MAX-WEIR-LD=117.3721131 MIN-PCT-DCA=.1000000000
     TRAY-SIZE 2 6 31 SIEVE
     UTILITIES COND-UTIL=REFRIG4 REB-UTIL=LP

 CHANGES WERE MADE TO BLOCK        RADFRAC2 04/17/2025   22:00:41:99 
 BLOCK RADFRAC2 RADFRAC
     SUBOBJECTS INTERNALS = CS-1 CS-2
     PARAM NSTAGE=40 ALGORITHM=STANDARD HYDRAULIC=NO MAXOL=25  &
         DAMPING=NONE
     PARAM2 STATIC-DP=YES OLD-SULZER=NO
     COL-CONFIG CONDENSER=TOTAL CA-CONFIG=INT-1
     FEEDS B1 20
     PRODUCTS B2 40 L / D2 1 L
     P-SPEC 1 213. <kPa>
     COL-SPECS D:F=0.90211607119 MOLE-RR=0.25556658358
     REPORT NOHYDRAULIC
     INTERNALS CS-1 STAGE1=2 STAGE2=26 P-UPDATE=NO  &
         TRAYTYPE=SIEVE NPASS=1 SYSFAC=1.000000000  &
         OVER-DESIGN=1.000000000 WEIR-HT=50.80000000 <mm>  &
         DC-CLEAR=38.10000000 <mm> DC-WTOP-SIDE=131.7036185 <mm>  &
         DC-WBOT-SIDE=131.7036185 <mm> HOLE-DIAM=12.70000000 <mm>  &
         HOLE-AREA=.1000000000 FLOOD-METH=GLITSCH6  &
         DECK-THICK=0.134 <IN> PCT-FLOOD-FA=80.00000000  &
         AER-PARAM-M=1.000000000 MAX-DC-LOAD=GLITSCH  &
         MAX-ACC-DP=.0250000000 MAX-PCT-DCB=100.0000000  &
         MAX-PCT-ENT=10.00000000 MIN-WEIR-LD=4.470981863  &
         MAX-WEIR-LD=117.3721131 MIN-PCT-DCA=.1000000000
     TRAY-SIZE 1 2 26 SIEVE
     INTERNALS CS-2 STAGE1=27 STAGE2=39 P-UPDATE=NO  &
         TRAYTYPE=SIEVE NPASS=1 SYSFAC=1.000000000  &
         OVER-DESIGN=1.000000000 WEIR-HT=50.80000000 <mm>  &
         DC-CLEAR=38.10000000 <mm> DC-WTOP-SIDE=126.6370094 <mm>  &
         DC-WBOT-SIDE=126.6370094 <mm> HOLE-DIAM=12.70000000 <mm>  &
         HOLE-AREA=.1000000000 FLOOD-METH=GLITSCH6  &
         DECK-THICK=0.134 <IN> PCT-FLOOD-FA=80.00000000  &
         AER-PARAM-M=1.000000000 MAX-DC-LOAD=GLITSCH  &
         MAX-ACC-DP=.0250000000 MAX-PCT-DCB=100.0000000  &
         MAX-PCT-ENT=10.00000000 MIN-WEIR-LD=4.470981863  &
         MAX-WEIR-LD=117.3721131 MIN-PCT-DCA=.1000000000
     TRAY-SIZE 2 27 39 SIEVE
     UTILITIES COND-UTIL=REFRIG1 REB-UTIL=LP

 PDF updated                                                                      TIME =     47.97
 THIS COPY OF ASPEN PLUS LICENSED TO JOHNS HOPKINS UNIVERSITY        
 
 


Calculations begin                                                              time     48.24


      UOS BLOCK RADFRAC1 MODEL: RADFRAC                                           TIME =     48.24

       Convergence iterations:
         OL   ML   IL     Err/Tol
          1    1    6      19.940    
          2    1    3     0.37782    

      UOS BLOCK RADFRAC2 MODEL: RADFRAC                                           TIME =     48.24

       Convergence iterations:
         OL   ML   IL     Err/Tol
          1    1    4      1.6283    
          2    1    2     0.25689E-01

      CHECKING PHASE EQUILIBRIUM RESULTS                                          TIME =     48.25

      CHECKING PHASE EQUILIBRIUM RESULTS                                          TIME =     48.25

 STREAM D1      
        SUBSTREAM MIXED     F =  3.117832922579398E-02  T =   128.697911569901      P =   525000.000000000    
                            H =  -23226442.6560209      V =   0.00000000000000      L =   1.00000000000000    
                            ENTROPY =  -3233.99502910361      DENSITY =   1106.79046255822      MW =   51.0525018805288    
        VINYL-01  2.009977247714730E-02  ACETY-01  1.078127722557958E-03  DICHL-01  4.016347567518186E-26
        OXYGE-01  3.836282700974907E-04  HYDRO-01  4.510939310060275E-03  WATER     1.716081788149587E-04
        NITROGEN  3.651082846445081E-03  CARBONMO  3.968568311353351E-04  METHANE   8.863135895355817E-04

 STREAM B1      
        SUBSTREAM MIXED     F =  3.496447632976171E-02  T =   308.687367179460      P =   525000.000000000    
                            H =   5923293.25410248      V =   0.00000000000000      L =   1.00000000000000    
                            ENTROPY =  -1925.54929155733      DENSITY =   892.346499151558      MW =   63.3602220300155    
        VINYL-01  3.413732813568206E-02  ACETY-01  2.026368702460941E-12  DICHL-01  8.267850735277539E-04
        OXYGE-01  2.131106371450389E-24  HYDRO-01  3.844700693939275E-12  WATER     3.631146808241952E-07
        NITROGEN  2.456078404383356E-24  CARBONMO  5.447813691402902E-25  METHANE   8.207923218265848E-21

 STREAM D2      
        SUBSTREAM MIXED     F =  3.154201601782040E-02  T =   278.650434904776      P =   213000.000000000    
                            H =   6289177.28981704      V =   0.00000000000000      L =   1.00000000000000    
                            ENTROPY =  -2093.65262273503      DENSITY =   936.077171398464      MW =   62.4980078992100    
        VINYL-01  3.154165289726191E-02  ACETY-01  2.026368707684641E-12  DICHL-01  5.665030765146485E-15
        OXYGE-01   0.00000000000000      HYDRO-01  3.844700703850384E-12  WATER     3.631146817597564E-07
        NITROGEN   0.00000000000000      CARBONMO   0.00000000000000      METHANE    0.00000000000000    

 STREAM B2      
        SUBSTREAM MIXED     F =  3.422460311941308E-03  T =   286.256934435666      P =   213000.000000000    
                            H =  -33412065.6261217      V =   0.00000000000000      L =   1.00000000000000    
                            ENTROPY =  -2263.89662036819      DENSITY =   1007.70725575381      MW =   71.3065438948847    
        VINYL-01  2.595675258062010E-03  ACETY-01  1.173552897272759E-37  DICHL-01  8.267850538792981E-04
        OXYGE-01   0.00000000000000      HYDRO-01  8.596442348067387E-38  WATER     4.980887245361403E-19
        NITROGEN   0.00000000000000      CARBONMO   0.00000000000000      METHANE    0.00000000000000    


*** INPUT SPECIFICATION MESSAGES ***

 FLOWSHEET    IS GENERATED BECAUSE OF OTHER CHANGES 04/17/2025   22:00:43:99 
 FLOWSHEET
     BLOCK RADFRAC1 IN=FEED OUT=D1 B1
     BLOCK RADFRAC2 IN=B1 OUT=D2 B2

 CHANGES WERE MADE TO BLOCK        RADFRAC1 04/17/2025   22:00:43:99 
 BLOCK RADFRAC1 RADFRAC
     SUBOBJECTS INTERNALS = CS-1 CS-2
     PARAM NSTAGE=32 ALGORITHM=STANDARD HYDRAULIC=NO MAXOL=25  &
         DAMPING=NONE
     PARAM2 STATIC-DP=YES OLD-SULZER=NO
     COL-CONFIG CONDENSER=TOTAL CA-CONFIG=INT-1
     FEEDS FEED 22
     PRODUCTS B1 32 L / D1 1 L
     P-SPEC 1 525. <kPa>
     COL-SPECS D:F=0.47016163038 MOLE-RR=0.46234514573
     REPORT NOHYDRAULIC
     INTERNALS CS-1 STAGE1=2 STAGE2=5 P-UPDATE=NO TRAYTYPE=SIEVE  &
         NPASS=1 SYSFAC=1.000000000 OVER-DESIGN=1.000000000  &
         WEIR-HT=50.80000000 <mm> DC-CLEAR=38.10000000 <mm>  &
         DC-WTOP-SIDE=126.5280030 <mm> DC-WBOT-SIDE=126.5280030 <mm>  &
         HOLE-DIAM=12.70000000 <mm> HOLE-AREA=.1000000000  &
         FLOOD-METH=GLITSCH6 DECK-THICK=0.134 <IN>  &
         PCT-FLOOD-FA=80.00000000 AER-PARAM-M=1.000000000  &
         MAX-DC-LOAD=GLITSCH MAX-ACC-DP=.0250000000  &
         MAX-PCT-DCB=100.0000000 MAX-PCT-ENT=10.00000000  &
         MIN-WEIR-LD=4.470981863 MAX-WEIR-LD=117.3721131  &
         MIN-PCT-DCA=.1000000000
     TRAY-SIZE 1 2 5 SIEVE
     INTERNALS CS-2 STAGE1=6 STAGE2=31 P-UPDATE=NO  &
         TRAYTYPE=SIEVE NPASS=1 SYSFAC=1.000000000  &
         OVER-DESIGN=1.000000000 WEIR-HT=50.80000000 <mm>  &
         DC-CLEAR=38.10000000 <mm> DC-WTOP-SIDE=126.5326768 <mm>  &
         DC-WBOT-SIDE=126.5326768 <mm> HOLE-DIAM=12.70000000 <mm>  &
         HOLE-AREA=.1000000000 FLOOD-METH=GLITSCH6  &
         DECK-THICK=0.134 <IN> PCT-FLOOD-FA=80.00000000  &
         AER-PARAM-M=1.000000000 MAX-DC-LOAD=GLITSCH  &
         MAX-ACC-DP=.0250000000 MAX-PCT-DCB=100.0000000  &
         MAX-PCT-ENT=10.00000000 MIN-WEIR-LD=4.470981863  &
         MAX-WEIR-LD=117.3721131 MIN-PCT-DCA=.1000000000
     TRAY-SIZE 2 6 31 SIEVE
     UTILITIES COND-UTIL=REFRIG4 REB-UTIL=LP

 CHANGES WERE MADE TO BLOCK        RADFRAC2 04/17/2025   22:00:43:99 
 BLOCK RADFRAC2 RADFRAC
     SUBOBJECTS INTERNALS = CS-1 CS-2
     PARAM NSTAGE=36 ALGORITHM=STANDARD HYDRAULIC=NO MAXOL=25  &
         DAMPING=NONE
     PARAM2 STATIC-DP=YES OLD-SULZER=NO
     COL-CONFIG CONDENSER=TOTAL CA-CONFIG=INT-1
     FEEDS B1 20
     PRODUCTS B2 36 L / D2 1 L
     P-SPEC 1 213. <kPa>
     COL-SPECS D:F=0.89630972746 MOLE-RR=0.78302385523
     REPORT NOHYDRAULIC
     INTERNALS CS-1 STAGE1=2 STAGE2=26 P-UPDATE=NO  &
         TRAYTYPE=SIEVE NPASS=1 SYSFAC=1.000000000  &
         OVER-DESIGN=1.000000000 WEIR-HT=50.80000000 <mm>  &
         DC-CLEAR=38.10000000 <mm> DC-WTOP-SIDE=109.9339495 <mm>  &
         DC-WBOT-SIDE=109.9339495 <mm> HOLE-DIAM=12.70000000 <mm>  &
         HOLE-AREA=.1000000000 FLOOD-METH=GLITSCH6  &
         DECK-THICK=0.134 <IN> PCT-FLOOD-FA=80.00000000  &
         AER-PARAM-M=1.000000000 MAX-DC-LOAD=GLITSCH  &
         MAX-ACC-DP=.0250000000 MAX-PCT-DCB=100.0000000  &
         MAX-PCT-ENT=10.00000000 MIN-WEIR-LD=4.470981863  &
         MAX-WEIR-LD=117.3721131 MIN-PCT-DCA=.1000000000
     TRAY-SIZE 1 2 26 SIEVE
     INTERNALS CS-2 STAGE1=27 STAGE2=35 P-UPDATE=NO  &
         TRAYTYPE=SIEVE NPASS=1 SYSFAC=1.000000000  &
         OVER-DESIGN=1.000000000 WEIR-HT=50.80000000 <mm>  &
         DC-CLEAR=38.10000000 <mm> DC-WTOP-SIDE=103.4055291 <mm>  &
         DC-WBOT-SIDE=103.4055291 <mm> HOLE-DIAM=12.70000000 <mm>  &
         HOLE-AREA=.1000000000 FLOOD-METH=GLITSCH6  &
         DECK-THICK=0.134 <IN> PCT-FLOOD-FA=80.00000000  &
         AER-PARAM-M=1.000000000 MAX-DC-LOAD=GLITSCH  &
         MAX-ACC-DP=.0250000000 MAX-PCT-DCB=100.0000000  &
         MAX-PCT-ENT=10.00000000 MIN-WEIR-LD=4.470981863  &
         MAX-WEIR-LD=117.3721131 MIN-PCT-DCA=.1000000000
     TRAY-SIZE 2 27 35 SIEVE
     UTILITIES COND-UTIL=REFRIG1 REB-UTIL=LP

 PDF updated                                                                      TIME =     49.84
 THIS COPY OF ASPEN PLUS LICENSED TO JOHNS HOPKINS UNIVERSITY        
 
 


Calculations begin                                                              time     50.09


      UOS BLOCK RADFRAC1 MODEL: RADFRAC                                           TIME =     50.09

       Convergence iterations:
         OL   ML   IL     Err/Tol
          1    1    6      19.976    
          2    1    3     0.32893    

      UOS BLOCK RADFRAC2 MODEL: RADFRAC                                           TIME =     50.09

       Convergence iterations:
         OL   ML   IL     Err/Tol
          1    1    3      1.9494    
          2    1    2     0.26905E-01

      CHECKING PHASE EQUILIBRIUM RESULTS                                          TIME =     50.10

      CHECKING PHASE EQUILIBRIUM RESULTS                                          TIME =     50.10

 STREAM D2      
        SUBSTREAM MIXED     F =  3.141117104452947E-02  T =   278.648627164311      P =   213000.000000000    
                            H =   6282987.40966260      V =   0.00000000000000      L =   1.00000000000000    
                            ENTROPY =  -2093.66129141397      DENSITY =   936.083487784107      MW =   62.4970006751533    
        VINYL-01  3.141009819579223E-02  ACETY-01  4.018523005557520E-13  DICHL-01  4.695928147403405E-21
        OXYGE-01   0.00000000000000      HYDRO-01  6.508832817594008E-13  WATER     1.072847684509625E-06
        NITROGEN   0.00000000000000      CARBONMO   0.00000000000000      METHANE    0.00000000000000    

 STREAM B2      
        SUBSTREAM MIXED     F =  3.633825213118808E-03  T =   285.745622784989      P =   213000.000000000    
                            H =  -31111671.5811252      V =   0.00000000000000      L =   1.00000000000000    
                            ENTROPY =  -2253.72744064285      DENSITY =   1003.91662439227      MW =   70.7942171565412    
        VINYL-01  2.807040124106580E-03  ACETY-01  3.886630083919479E-34  DICHL-01  8.267850890121618E-04
        OXYGE-01   0.00000000000000      HYDRO-01  2.882369290903336E-34  WATER     6.546124155167715E-17
        NITROGEN   0.00000000000000      CARBONMO   0.00000000000000      METHANE    0.00000000000000    
