
 + + + + + + + + + + + + + + + + + + + + + + + + + + + + + + + + + + + + + + + +
 + + + + + + + + + + + + + + + + + + + + + + + + + + + + + + + + + + + + + + + +
 + +                                                                         + +
 + +                      ASPEN PLUS CALCULATION HISTORY                     + +
 + +                                                                         + +
 + + + + + + + + + + + + + + + + + + + + + + + + + + + + + + + + + + + + + + + +
 + + + + + + + + + + + + + + + + + + + + + + + + + + + + + + + + + + + + + + + +

 ASPEN PLUS IS A TRADEMARK OF           HOTLINE:
 ASPEN TECHNOLOGY, INC.                 U.S.A. 888/996-7100
 781/221-6400                           EUROPE (44) 1189-226555

 PLATFORM: WIN-X64                                       FEBRUARY 15, 2025   
 VERSION: 40.0   Build 359                               SATURDAY    
 INSTALLATION:                                           2:17:38 P.M.        

 THIS COPY OF ASPEN PLUS LICENSED TO JOHNS HOPKINS UNIVERSITY        


      ASPEN PLUS (R) IS A PROPRIETARY PRODUCT OF ASPEN TECHNOLOGY, INC.
      (ASPENTECH), AND MAY BE USED ONLY UNDER AGREEMENT WITH ASPENTECH.
      RESTRICTED RIGHTS LEGEND:  USE, REPRODUCTION, OR DISCLOSURE BY THE
      U.S. GOVERNMENT IS SUBJECT TO RESTRICTIONS SET FORTH IN 
      (i) FAR 52.227-14, Alt. III, (ii) FAR 52.227-19, (iii) DFARS 
      252.227-7013(c)(1)(ii), or (iv) THE ACCOMPANYING LICENSE AGREEMENT,
      AS APPLICABLE. FOR PURPOSES OF THE FAR, THIS SOFTWARE SHALL BE DEEMED
      TO BE "UNPUBLISHED" AND LICENSED WITH DISCLOSURE PROHIBITIONS.
      CONTRACTOR/SUBCONTRACTOR: ASPEN TECHNOLOGY, INC. 20 CROSBY DRIVE,
      BEDFORD, MA 01730.
 *** INPUT SUMMARY ***

 >>CURRENT RUN

   ORIGINAL RUN                           FEBRUARY 15, 2025   
   2:17:38 P.M.                           SATURDAY    
   INPUT FILE: _1729qqx.inm
   RUN ID : _1729qqx
          1    ;
          2    ;Input file created by Aspen Plus Rel. 40.0 at 14:17:38 Sat Feb 15, 2025
          3    ;Directory C:\Users\wsangpa1\OneDrive - Johns Hopkins\ASPEN\Aspen\FlashOperation  Runid FLASHOPERATION
          4    ;
          5
          6
          7    DYNAMICS
          8        DYNAMICS RESULTS=ON
          9
         10    IN-UNITS MET PRESSURE=bar TEMPERATURE=C DELTA-T=C PDROP=bar  &
         11            INVERSE-PRES='1/bar' SHORT-LENGTH=mm
         12
         13    DEF-STREAMS CONVEN ALL
         14
         15    MODEL-OPTION
         16
         17    DATABANKS 'APV140 PURE40' / 'APV140 AQUEOUS' / 'APV140 SOLIDS' &
         18             / 'APV140 INORGANIC' / 'APESV140 AP-EOS' /  &
         19            'NISTV140 NIST-TRC' / NOASPENPCD
         20
         21    PROP-SOURCES 'APV140 PURE40' / 'APV140 AQUEOUS' /  &
         22            'APV140 SOLIDS' / 'APV140 INORGANIC' / 'APESV140 AP-EOS' &
         23             / 'NISTV140 NIST-TRC'
         24
         25    COMPONENTS
         26        ETHANE C2H6 /
         27        PROPANE C3H8 /
         28        BUTANE C4H10-1
         29
         30    SOLVE
         31        RUN-MODE MODE=SIM
         32
         33    FLOWSHEET
         34        BLOCK FLASH1 IN=2 OUT=3 4
         35        BLOCK FLASH2 IN=4 OUT=5 6
         36        BLOCK FLASH3 IN=6 OUT=7 8
         37        BLOCK COMP1 IN=3 OUT=9
         38        BLOCK COMP2 IN=5 OUT=11
         39        BLOCK COMP3 IN=7 OUT=13
         40        BLOCK COOLER1 IN=9 OUT=10
         41        BLOCK COOLER2 IN=11 OUT=12
         42        BLOCK COOLER3 IN=13 OUT=14
         43        BLOCK B10 IN=10 12 14 FEED OUT=2
         44
         45    PROPERTIES PENG-ROB
         46
         47    PROP-DATA PRKBV-1
         48        IN-UNITS MET PRESSURE=bar TEMPERATURE=C DELTA-T=C PDROP=bar  &
         49            INVERSE-PRES='1/bar' SHORT-LENGTH=mm
         50        PROP-LIST PRKBV
         51        BPVAL ETHANE PROPANE 1.10000000E-3 0.0 0.0 -273.1500000  &
         52            726.8500000
         53        BPVAL PROPANE ETHANE 1.10000000E-3 0.0 0.0 -273.1500000  &
         54            726.8500000
         55        BPVAL ETHANE BUTANE 9.60000000E-3 0.0 0.0 -273.1500000  &
         56            726.8500000
         57        BPVAL BUTANE ETHANE 9.60000000E-3 0.0 0.0 -273.1500000  &
         58            726.8500000
         59        BPVAL PROPANE BUTANE 3.30000000E-3 0.0 0.0 -273.1500000  &
         60            726.8500000
         61        BPVAL BUTANE PROPANE 3.30000000E-3 0.0 0.0 -273.1500000  &
         62            726.8500000
         63
         64    STREAM 8
         65        SUBSTREAM MIXED TEMP=-20. <F> PRES=511.  &
         66            MOLE-FLOW=10. <lbmol/hr>
         67        MOLE-FLOW ETHANE 2.5 <lbmol/hr> / PROPANE 6. <lbmol/hr> /  &
         68            BUTANE 1.5 <lbmol/hr>
         69
         70    STREAM FEED
         71        SUBSTREAM MIXED TEMP=200. <F> PRES=500. <psia>  &
         72            MOLE-FLOW=10. <lbmol/hr>
         73        MOLE-FLOW ETHANE 2.5 <lbmol/hr> / PROPANE 6. <lbmol/hr> /  &
         74            BUTANE 1.5 <lbmol/hr>
         75
         76    BLOCK B10 MIXER
         77        PARAM PRES=10.
         78
         79    BLOCK COOLER1 HEATER
         80        PARAM TEMP=4.4 PRES=22.1 DPPARMOPT=NO
         81
         82    BLOCK COOLER2 HEATER
         83        PARAM TEMP=15.6 PRES=36.5 DPPARMOPT=NO
         84
         85    BLOCK COOLER3 HEATER
         86        PARAM TEMP=26.7 PRES=60.7 DPPARMOPT=NO
         87
         88    BLOCK FLASH1 FLASH2
         89        PARAM TEMP=48.9 PRES=20.7
         90
         91    BLOCK FLASH2 FLASH2
         92        PARAM TEMP=10. PRES=12.4
         93
         94    BLOCK FLASH3 FLASH2
         95        PARAM TEMP=-28.9 PRES=7.4
         96
         97    BLOCK COMP1 COMPR
         98        PARAM TYPE=ISENTROPIC PRES=22.3 SEFF=1. MEFF=1. SB-MAXIT=30  &
         99            SB-TOL=0.0001
        100
        101    BLOCK COMP2 COMPR
        102        PARAM TYPE=ISENTROPIC PRES=37.2 SB-MAXIT=30 SB-TOL=0.0001
        103
        104    BLOCK COMP3 COMPR
        105        PARAM TYPE=ISENTROPIC PRES=62.1 SB-MAXIT=30 SB-TOL=0.0001
        106
        107    EO-CONV-OPTI
        108
        109    STREAM-REPOR MOLEFLOW
        110    ;
        111    ;
        112    ;
        113    ;
        114    ;
 *** INPUT TRANSLATOR MESSAGES ***

  *** THIS RUN USES THE PROPERTIES ENTERPRISE DATABASE ***
      SQLLOCALDB.APESV140 : (DATAVERSION - 40.0.0.13)                         
      SQLLOCALDB.APV140 : (DATAVERSION - 40.0.0.13)                           
      SQLLOCALDB.FACTV140 : (DATAVERSION - 40.0.0.12)                         
      SQLLOCALDB.NISTV140 : (DATAVERSION - 40.0.0.12)                         
 
 

 PDF updated                                                                      TIME =      1.57

 *** CALCULATION TRACE ***


 *** FLOWSHEET ANALYSIS MESSAGES ***

 FLOWSHEET CONNECTIVITY BY STREAMS       

   STREAM     SOURCE     DEST           STREAM     SOURCE     DEST
   FEED       ----       B10            3          FLASH1     COMP1   
   4          FLASH1     FLASH2         5          FLASH2     COMP2   
   6          FLASH2     FLASH3         7          FLASH3     COMP3   
   8          FLASH3     ----           9          COMP1      COOLER1 
   11         COMP2      COOLER2        13         COMP3      COOLER3 
   10         COOLER1    B10            12         COOLER2    B10     
   14         COOLER3    B10            2          B10        FLASH1  

 FLOWSHEET CONNECTIVITY BY BLOCKS        

   BLOCK        INLETS                         OUTLETS
   FLASH1       2                              3 4                         
   FLASH2       4                              5 6                         
   FLASH3       6                              7 8                         
   COMP1        3                              9                           
   COMP2        5                              11                          
   COMP3        7                              13                          
   COOLER1      9                              10                          
   COOLER2      11                             12                          
   COOLER3      13                             14                          
   B10          10 12 14 FEED                  2                           

      BLOCK $OLVER01 (METHOD: WEGSTEIN) HAS BEEN DEFINED TO CONVERGE
               STREAMS: 2

      COMPUTATION ORDER FOR THE FLOWSHEET IS:
      $OLVER01 FLASH1 COMP1 COOLER1 FLASH2 COMP2 COOLER2 FLASH3 COMP3 
      |  COOLER3 B10 
      (RETURN $OLVER01) 

Calculations begin                                                              time      2.96


 SIMULATION CALCULATIONS BEGIN                                                    TIME =      2.96

      CONVERGENCE BLOCK $OLVER01  METHOD: WEGSTEIN                                TIME =      2.96
      ITER   0 For Tear Streams: 2

      UOS BLOCK FLASH1   MODEL: FLASH2                                            TIME =      2.96

  *   WARNING WHILE EXECUTING UNIT OPERATIONS BLOCK: "FLASH1" (MODEL: "FLASH2") 
                                                               (UFL01I.1)       
      ZERO FEED TO THE BLOCK.  BLOCK BYPASSED                                   

      UOS BLOCK COMP1    MODEL: COMPR                                             TIME =      2.96

  *   WARNING WHILE EXECUTING UNIT OPERATIONS BLOCK: "COMP1" (MODEL: "COMPR")   
                                                               (CMSTIN.1)       
      TOTAL FLOW IS ZERO. BLOCK IS BYPASSED.                                    
 

      UOS BLOCK COOLER1  MODEL: HEATER                                            TIME =      2.96

  *   WARNING WHILE EXECUTING UNIT OPERATIONS BLOCK: "COOLER1" (MODEL:          
      "HEATER")                                                (UHE01.4)        
      ZERO FEED TO THE BLOCK.  BLOCK BYPASSED                                   

      UOS BLOCK FLASH2   MODEL: FLASH2                                            TIME =      2.96

  *   WARNING WHILE EXECUTING UNIT OPERATIONS BLOCK: "FLASH2" (MODEL: "FLASH2") 
                                                               (UFL01I.1)       
      ZERO FEED TO THE BLOCK.  BLOCK BYPASSED                                   

      UOS BLOCK COMP2    MODEL: COMPR                                             TIME =      2.96

  *   WARNING WHILE EXECUTING UNIT OPERATIONS BLOCK: "COMP2" (MODEL: "COMPR")   
                                                               (CMSTIN.1)       
      TOTAL FLOW IS ZERO. BLOCK IS BYPASSED.                                    
 

      UOS BLOCK COOLER2  MODEL: HEATER                                            TIME =      2.96

  *   WARNING WHILE EXECUTING UNIT OPERATIONS BLOCK: "COOLER2" (MODEL:          
      "HEATER")                                                (UHE01.4)        
      ZERO FEED TO THE BLOCK.  BLOCK BYPASSED                                   

      UOS BLOCK FLASH3   MODEL: FLASH2                                            TIME =      2.96

  *   WARNING WHILE EXECUTING UNIT OPERATIONS BLOCK: "FLASH3" (MODEL: "FLASH2") 
                                                               (UFL01I.1)       
      ZERO FEED TO THE BLOCK.  BLOCK BYPASSED                                   

      UOS BLOCK COMP3    MODEL: COMPR                                             TIME =      2.96

  *   WARNING WHILE EXECUTING UNIT OPERATIONS BLOCK: "COMP3" (MODEL: "COMPR")   
                                                               (CMSTIN.1)       
      TOTAL FLOW IS ZERO. BLOCK IS BYPASSED.                                    
 

      UOS BLOCK COOLER3  MODEL: HEATER                                            TIME =      2.96

  *   WARNING WHILE EXECUTING UNIT OPERATIONS BLOCK: "COOLER3" (MODEL:          
      "HEATER")                                                (UHE01.4)        
      ZERO FEED TO THE BLOCK.  BLOCK BYPASSED                                   

      ENTHALPY CALCULATION FOR INLET STREAM FEED OF BLOCK B10                     TIME =      2.96
      KODE = 2  NTRIAL =   5  T = 366.4833  P = 3.447379E+06  V =  1.00000      Q =  0.00000    

      UOS BLOCK B10      MODEL: MIXER                                             TIME =      2.96
      NO. TEMP ITER =    4     TEMP =  333.298    
      KODE = 1  NTRIAL =   4  T = 333.2978  P = 1.000000E+06  V =  1.00000      Q =  0.00000    

      CONVERGENCE BLOCK $OLVER01  METHOD: WEGSTEIN                                TIME =      2.96
      ITER   1 For Tear Streams: 2

      --FLASH TEAR STREAM 2       
      NO. TEMP ITER =    4     TEMP =  333.298    
      KODE = 1  NTRIAL =   4  T = 333.2978  P = 1.000000E+06  V =  1.00000      Q =  0.00000    

  LOOP $OLVER01 ITER    1:   4 VARS NOT CONVERGED, MAX ERR/TOL     0.10000E+07    TIME =      2.97

      UOS BLOCK FLASH1   MODEL: FLASH2                                            TIME =      2.97
      KODE = 2  NTRIAL =   3  T = 322.0500  P = 2.070000E+06  V = 0.334028      Q = -13203.9    

      UOS BLOCK COMP1    MODEL: COMPR                                             TIME =      2.97
      OUTLET TEMP =   326.2       OUTLET PRES =  0.2230E+07   INDICATED HP =   60.76       BRAKE HP =   60.76    
      ISENTR TEMP =   326.2      CALC ISENTR EFF =   1.000      ISENTR HP =   60.76      HP =  0.2557E-01

      UOS BLOCK COOLER1  MODEL: HEATER                                            TIME =      2.97
      KODE = 2  NTRIAL =   4  T = 277.5500  P = 2.210000E+06  V =  0.00000      Q = -6851.28    

      UOS BLOCK FLASH2   MODEL: FLASH2                                            TIME =      2.97
      KODE = 2  NTRIAL =   3  T = 283.1500  P = 1.240000E+06  V =  0.00000      Q = -4148.16    

      UOS BLOCK COMP2    MODEL: COMPR                                             TIME =      2.97

  *   WARNING WHILE EXECUTING UNIT OPERATIONS BLOCK: "COMP2" (MODEL: "COMPR")   
                                                               (CMSTIN.1)       
      TOTAL FLOW IS ZERO. BLOCK IS BYPASSED.                                    
 

      UOS BLOCK COOLER2  MODEL: HEATER                                            TIME =      2.97

  *   WARNING WHILE EXECUTING UNIT OPERATIONS BLOCK: "COOLER2" (MODEL:          
      "HEATER")                                                (UHE01.4)        
      ZERO FEED TO THE BLOCK.  BLOCK BYPASSED                                   

      UOS BLOCK FLASH3   MODEL: FLASH2                                            TIME =      2.97
      KODE = 2  NTRIAL =   3  T = 244.2500  P =  740000.      V =  0.00000      Q = -3541.98    

      UOS BLOCK COMP3    MODEL: COMPR                                             TIME =      2.97

  *   WARNING WHILE EXECUTING UNIT OPERATIONS BLOCK: "COMP3" (MODEL: "COMPR")   
                                                               (CMSTIN.1)       
      TOTAL FLOW IS ZERO. BLOCK IS BYPASSED.                                    
 

      UOS BLOCK COOLER3  MODEL: HEATER                                            TIME =      2.97

  *   WARNING WHILE EXECUTING UNIT OPERATIONS BLOCK: "COOLER3" (MODEL:          
      "HEATER")                                                (UHE01.4)        
      ZERO FEED TO THE BLOCK.  BLOCK BYPASSED                                   

      UOS BLOCK B10      MODEL: MIXER                                             TIME =      2.97
      KODE = 1  NTRIAL =   7  T = 300.0666  P = 1.000000E+06  V = 0.879673      Q =  0.00000    

      CONVERGENCE BLOCK $OLVER01  METHOD: WEGSTEIN                                TIME =      2.97
      ITER   2 For Tear Streams: 2

      --FLASH TEAR STREAM 2       
      KODE = 1  NTRIAL =   8  T = 298.6510  P = 1.000000E+06  V = 0.937450      Q =  0.00000    

  LOOP $OLVER01 ITER    2:   5 VARS NOT CONVERGED, MAX ERR/TOL      5084.4        TIME =      2.97

      UOS BLOCK FLASH1   MODEL: FLASH2                                            TIME =      2.97
      KODE = 2  NTRIAL =   2  T = 322.0500  P = 2.070000E+06  V = 0.688760      Q = -4549.70    

      UOS BLOCK COMP1    MODEL: COMPR                                             TIME =      2.97
      OUTLET TEMP =   326.2       OUTLET PRES =  0.2230E+07   INDICATED HP =   194.6       BRAKE HP =   194.6    
      ISENTR TEMP =   326.2      CALC ISENTR EFF =   1.000      ISENTR HP =   194.6      HP =  0.2618    

      UOS BLOCK COOLER1  MODEL: HEATER                                            TIME =      2.97
      KODE = 2  NTRIAL =   4  T = 277.5500  P = 2.210000E+06  V =  0.00000      Q = -21863.0    

      UOS BLOCK FLASH2   MODEL: FLASH2                                            TIME =      2.97
      KODE = 2  NTRIAL =   3  T = 283.1500  P = 1.240000E+06  V =  0.00000      Q = -3006.27    

      UOS BLOCK COMP2    MODEL: COMPR                                             TIME =      2.97

  *   WARNING WHILE EXECUTING UNIT OPERATIONS BLOCK: "COMP2" (MODEL: "COMPR")   
                                                               (CMSTIN.1)       
      TOTAL FLOW IS ZERO. BLOCK IS BYPASSED.                                    
 

      UOS BLOCK COOLER2  MODEL: HEATER                                            TIME =      2.97

  *   WARNING WHILE EXECUTING UNIT OPERATIONS BLOCK: "COOLER2" (MODEL:          
      "HEATER")                                                (UHE01.4)        
      ZERO FEED TO THE BLOCK.  BLOCK BYPASSED                                   

      UOS BLOCK FLASH3   MODEL: FLASH2                                            TIME =      2.97
      KODE = 2  NTRIAL =   3  T = 244.2500  P =  740000.      V =  0.00000      Q = -2570.02    

      UOS BLOCK COMP3    MODEL: COMPR                                             TIME =      2.97

  *   WARNING WHILE EXECUTING UNIT OPERATIONS BLOCK: "COMP3" (MODEL: "COMPR")   
                                                               (CMSTIN.1)       
      TOTAL FLOW IS ZERO. BLOCK IS BYPASSED.                                    
 

      UOS BLOCK COOLER3  MODEL: HEATER                                            TIME =      2.97

  *   WARNING WHILE EXECUTING UNIT OPERATIONS BLOCK: "COOLER3" (MODEL:          
      "HEATER")                                                (UHE01.4)        
      ZERO FEED TO THE BLOCK.  BLOCK BYPASSED                                   

      UOS BLOCK B10      MODEL: MIXER                                             TIME =      2.97
      KODE = 1  NTRIAL =   4  T = 290.2698  P = 1.000000E+06  V = 0.605764      Q =  0.00000    

      CONVERGENCE BLOCK $OLVER01  METHOD: WEGSTEIN                                TIME =      2.97
      ITER   3 For Tear Streams: 2

      --FLASH TEAR STREAM 2       
      KODE = 1  NTRIAL =   4  T = 290.2698  P = 1.000000E+06  V = 0.605764      Q =  0.00000    

  LOOP $OLVER01 ITER    3:   5 VARS NOT CONVERGED, MAX ERR/TOL      3543.8        TIME =      2.97

      UOS BLOCK FLASH1   MODEL: FLASH2                                            TIME =      2.98
      KODE = 2  NTRIAL =   2  T = 322.0500  P = 2.070000E+06  V = 0.685142      Q =  8678.46    

      UOS BLOCK COMP1    MODEL: COMPR                                             TIME =      2.98
      OUTLET TEMP =   326.2       OUTLET PRES =  0.2230E+07   INDICATED HP =   257.9       BRAKE HP =   257.9    
      ISENTR TEMP =   326.2      CALC ISENTR EFF =   1.000      ISENTR HP =   257.9      HP =  0.4604    

      UOS BLOCK COOLER1  MODEL: HEATER                                            TIME =      2.98
      KODE = 2  NTRIAL =   4  T = 277.5500  P = 2.210000E+06  V =  0.00000      Q = -29035.3    

      UOS BLOCK FLASH2   MODEL: FLASH2                                            TIME =      2.98
      KODE = 2  NTRIAL =   3  T = 283.1500  P = 1.240000E+06  V =  0.00000      Q = -4055.75    

      UOS BLOCK COMP2    MODEL: COMPR                                             TIME =      2.98

  *   WARNING WHILE EXECUTING UNIT OPERATIONS BLOCK: "COMP2" (MODEL: "COMPR")   
                                                               (CMSTIN.1)       
      TOTAL FLOW IS ZERO. BLOCK IS BYPASSED.                                    
 

      UOS BLOCK COOLER2  MODEL: HEATER                                            TIME =      2.98

  *   WARNING WHILE EXECUTING UNIT OPERATIONS BLOCK: "COOLER2" (MODEL:          
      "HEATER")                                                (UHE01.4)        
      ZERO FEED TO THE BLOCK.  BLOCK BYPASSED                                   

      UOS BLOCK FLASH3   MODEL: FLASH2                                            TIME =      2.98
      KODE = 2  NTRIAL =   3  T = 244.2500  P =  740000.      V =  0.00000      Q = -3464.98    

      UOS BLOCK COMP3    MODEL: COMPR                                             TIME =      2.98

  *   WARNING WHILE EXECUTING UNIT OPERATIONS BLOCK: "COMP3" (MODEL: "COMPR")   
                                                               (CMSTIN.1)       
      TOTAL FLOW IS ZERO. BLOCK IS BYPASSED.                                    
 

      UOS BLOCK COOLER3  MODEL: HEATER                                            TIME =      2.98

  *   WARNING WHILE EXECUTING UNIT OPERATIONS BLOCK: "COOLER3" (MODEL:          
      "HEATER")                                                (UHE01.4)        
      ZERO FEED TO THE BLOCK.  BLOCK BYPASSED                                   

      UOS BLOCK B10      MODEL: MIXER                                             TIME =      2.98
      KODE = 1  NTRIAL =   3  T = 287.6878  P = 1.000000E+06  V = 0.529669      Q =  0.00000    

      CONVERGENCE BLOCK $OLVER01  METHOD: WEGSTEIN                                TIME =      2.98
      ITER   4 For Tear Streams: 2

      --FLASH TEAR STREAM 2       
      KODE = 1  NTRIAL =   4  T = 283.9813  P = 1.000000E+06  V = 0.607200      Q =  0.00000    

  LOOP $OLVER01 ITER    4:   5 VARS NOT CONVERGED, MAX ERR/TOL      1925.3        TIME =      2.98

      UOS BLOCK FLASH1   MODEL: FLASH2                                            TIME =      2.98
      KODE = 2  NTRIAL =   3  T = 322.0500  P = 2.070000E+06  V = 0.996737      Q =  31393.9    

      UOS BLOCK COMP1    MODEL: COMPR                                             TIME =      2.98
      OUTLET TEMP =   326.2       OUTLET PRES =  0.2230E+07   INDICATED HP =   608.0       BRAKE HP =   608.0    
      ISENTR TEMP =   326.2      CALC ISENTR EFF =   1.000      ISENTR HP =   608.0      HP =   2.549    

      UOS BLOCK COOLER1  MODEL: HEATER                                            TIME =      2.98
      KODE = 2  NTRIAL =   4  T = 277.5500  P = 2.210000E+06  V =  0.00000      Q = -68002.5    

      UOS BLOCK FLASH2   MODEL: FLASH2                                            TIME =      2.98
      KODE = 2  NTRIAL =   3  T = 283.1500  P = 1.240000E+06  V =  0.00000      Q = -67.8930    

      UOS BLOCK COMP2    MODEL: COMPR                                             TIME =      2.98

  *   WARNING WHILE EXECUTING UNIT OPERATIONS BLOCK: "COMP2" (MODEL: "COMPR")   
                                                               (CMSTIN.1)       
      TOTAL FLOW IS ZERO. BLOCK IS BYPASSED.                                    
 

      UOS BLOCK COOLER2  MODEL: HEATER                                            TIME =      2.98

  *   WARNING WHILE EXECUTING UNIT OPERATIONS BLOCK: "COOLER2" (MODEL:          
      "HEATER")                                                (UHE01.4)        
      ZERO FEED TO THE BLOCK.  BLOCK BYPASSED                                   

      UOS BLOCK FLASH3   MODEL: FLASH2                                            TIME =      2.98
      KODE = 2  NTRIAL =   3  T = 244.2500  P =  740000.      V =  0.00000      Q = -58.1182    

      UOS BLOCK COMP3    MODEL: COMPR                                             TIME =      2.98

  *   WARNING WHILE EXECUTING UNIT OPERATIONS BLOCK: "COMP3" (MODEL: "COMPR")   
                                                               (CMSTIN.1)       
      TOTAL FLOW IS ZERO. BLOCK IS BYPASSED.                                    
 

      UOS BLOCK COOLER3  MODEL: HEATER                                            TIME =      2.98

  *   WARNING WHILE EXECUTING UNIT OPERATIONS BLOCK: "COOLER3" (MODEL:          
      "HEATER")                                                (UHE01.4)        
      ZERO FEED TO THE BLOCK.  BLOCK BYPASSED                                   

      UOS BLOCK B10      MODEL: MIXER                                             TIME =      2.98
      KODE = 1  NTRIAL =   4  T = 279.8799  P = 1.000000E+06  V = 0.334425      Q =  0.00000    

      CONVERGENCE BLOCK $OLVER01  METHOD: WEGSTEIN                                TIME =      2.98
      ITER   5 For Tear Streams: 2

      --FLASH TEAR STREAM 2       
      KODE = 1  NTRIAL =   3  T = 279.8790  P = 1.000000E+06  V = 0.334402      Q =  0.00000    

  LOOP $OLVER01 ITER    5:   5 VARS NOT CONVERGED, MAX ERR/TOL      5408.8        TIME =      2.99

      UOS BLOCK FLASH1   MODEL: FLASH2                                            TIME =      2.99
      KODE = 2  NTRIAL =   2  T = 322.0500  P = 2.070000E+06  V = 0.857245      Q =  54881.5    

      UOS BLOCK COMP1    MODEL: COMPR                                             TIME =      2.99
      OUTLET TEMP =   326.2       OUTLET PRES =  0.2230E+07   INDICATED HP =   677.0       BRAKE HP =   677.0    
      ISENTR TEMP =   326.2      CALC ISENTR EFF =   1.000      ISENTR HP =   677.0      HP =   3.164    

      UOS BLOCK COOLER1  MODEL: HEATER                                            TIME =      2.99
      KODE = 2  NTRIAL =   4  T = 277.5500  P = 2.210000E+06  V =  0.00000      Q = -75890.3    

      UOS BLOCK FLASH2   MODEL: FLASH2                                            TIME =      2.99
      KODE = 2  NTRIAL =   3  T = 283.1500  P = 1.240000E+06  V =  0.00000      Q = -3849.94    

      UOS BLOCK COMP2    MODEL: COMPR                                             TIME =      2.99

  *   WARNING WHILE EXECUTING UNIT OPERATIONS BLOCK: "COMP2" (MODEL: "COMPR")   
                                                               (CMSTIN.1)       
      TOTAL FLOW IS ZERO. BLOCK IS BYPASSED.                                    
 

      UOS BLOCK COOLER2  MODEL: HEATER                                            TIME =      2.99

  *   WARNING WHILE EXECUTING UNIT OPERATIONS BLOCK: "COOLER2" (MODEL:          
      "HEATER")                                                (UHE01.4)        
      ZERO FEED TO THE BLOCK.  BLOCK BYPASSED                                   

      UOS BLOCK FLASH3   MODEL: FLASH2                                            TIME =      2.99
      KODE = 2  NTRIAL =   3  T = 244.2500  P =  740000.      V =  0.00000      Q = -3293.40    

      UOS BLOCK COMP3    MODEL: COMPR                                             TIME =      2.99

  *   WARNING WHILE EXECUTING UNIT OPERATIONS BLOCK: "COMP3" (MODEL: "COMPR")   
                                                               (CMSTIN.1)       
      TOTAL FLOW IS ZERO. BLOCK IS BYPASSED.                                    
 

      UOS BLOCK COOLER3  MODEL: HEATER                                            TIME =      2.99

  *   WARNING WHILE EXECUTING UNIT OPERATIONS BLOCK: "COOLER3" (MODEL:          
      "HEATER")                                                (UHE01.4)        
      ZERO FEED TO THE BLOCK.  BLOCK BYPASSED                                   

      UOS BLOCK B10      MODEL: MIXER                                             TIME =      2.99
      KODE = 1  NTRIAL =   3  T = 279.2811  P = 1.000000E+06  V = 0.311201      Q =  0.00000    

      CONVERGENCE BLOCK $OLVER01  METHOD: WEGSTEIN                                TIME =      2.99
      ITER   6 For Tear Streams: 2

      --FLASH TEAR STREAM 2       
      KODE = 1  NTRIAL =   3  T = 278.8735  P = 1.000000E+06  V = 0.323348      Q =  0.00000    

  LOOP $OLVER01 ITER    6:   5 VARS NOT CONVERGED, MAX ERR/TOL      988.35        TIME =      2.99

      UOS BLOCK FLASH1   MODEL: FLASH2                                            TIME =      2.99
      KODE = 2  NTRIAL =   2  T = 322.0500  P = 2.070000E+06  V = 0.905362      Q =  68381.8    

      UOS BLOCK COMP1    MODEL: COMPR                                             TIME =      2.99
      OUTLET TEMP =   326.2       OUTLET PRES =  0.2230E+07   INDICATED HP =   826.4       BRAKE HP =   826.4    
      ISENTR TEMP =   326.2      CALC ISENTR EFF =   1.000      ISENTR HP =   826.4      HP =   4.720    

      UOS BLOCK COOLER1  MODEL: HEATER                                            TIME =      2.99
      KODE = 2  NTRIAL =   4  T = 277.5500  P = 2.210000E+06  V =  0.00000      Q = -92778.0    

      UOS BLOCK FLASH2   MODEL: FLASH2                                            TIME =      2.99
      KODE = 2  NTRIAL =   3  T = 283.1500  P = 1.240000E+06  V =  0.00000      Q = -2952.14    

      UOS BLOCK COMP2    MODEL: COMPR                                             TIME =      2.99

  *   WARNING WHILE EXECUTING UNIT OPERATIONS BLOCK: "COMP2" (MODEL: "COMPR")   
                                                               (CMSTIN.1)       
      TOTAL FLOW IS ZERO. BLOCK IS BYPASSED.                                    
 

      UOS BLOCK COOLER2  MODEL: HEATER                                            TIME =      2.99

  *   WARNING WHILE EXECUTING UNIT OPERATIONS BLOCK: "COOLER2" (MODEL:          
      "HEATER")                                                (UHE01.4)        
      ZERO FEED TO THE BLOCK.  BLOCK BYPASSED                                   

      UOS BLOCK FLASH3   MODEL: FLASH2                                            TIME =      2.99
      KODE = 2  NTRIAL =   3  T = 244.2500  P =  740000.      V =  0.00000      Q = -2524.27    

      UOS BLOCK COMP3    MODEL: COMPR                                             TIME =      2.99

  *   WARNING WHILE EXECUTING UNIT OPERATIONS BLOCK: "COMP3" (MODEL: "COMPR")   
                                                               (CMSTIN.1)       
      TOTAL FLOW IS ZERO. BLOCK IS BYPASSED.                                    
 

      UOS BLOCK COOLER3  MODEL: HEATER                                            TIME =      2.99

  *   WARNING WHILE EXECUTING UNIT OPERATIONS BLOCK: "COOLER3" (MODEL:          
      "HEATER")                                                (UHE01.4)        
      ZERO FEED TO THE BLOCK.  BLOCK BYPASSED                                   

      UOS BLOCK B10      MODEL: MIXER                                             TIME =      2.99
      KODE = 1  NTRIAL =   3  T = 278.0828  P = 1.000000E+06  V = 0.273975      Q =  0.00000    

      CONVERGENCE BLOCK $OLVER01  METHOD: WEGSTEIN                                TIME =      2.99
      ITER   7 For Tear Streams: 2

      --FLASH TEAR STREAM 2       
      KODE = 1  NTRIAL =   3  T = 278.0830  P = 1.000000E+06  V = 0.273978      Q =  0.00000    

  LOOP $OLVER01 ITER    7:   5 VARS NOT CONVERGED, MAX ERR/TOL      1203.1        TIME =      3.00

      UOS BLOCK FLASH1   MODEL: FLASH2                                            TIME =      3.00
      KODE = 2  NTRIAL =   2  T = 322.0500  P = 2.070000E+06  V = 0.884939      Q =  79169.1    

      UOS BLOCK COMP1    MODEL: COMPR                                             TIME =      3.00
      OUTLET TEMP =   326.2       OUTLET PRES =  0.2230E+07   INDICATED HP =   892.2       BRAKE HP =   892.2    
      ISENTR TEMP =   326.2      CALC ISENTR EFF =   1.000      ISENTR HP =   892.2      HP =   5.504    

      UOS BLOCK COOLER1  MODEL: HEATER                                            TIME =      3.00
      KODE = 2  NTRIAL =   4  T = 277.5500  P = 2.210000E+06  V =  0.00000      Q = -100262.    

      UOS BLOCK FLASH2   MODEL: FLASH2                                            TIME =      3.00
      KODE = 2  NTRIAL =   3  T = 283.1500  P = 1.240000E+06  V =  0.00000      Q = -3966.16    

      UOS BLOCK COMP2    MODEL: COMPR                                             TIME =      3.00

  *   WARNING WHILE EXECUTING UNIT OPERATIONS BLOCK: "COMP2" (MODEL: "COMPR")   
                                                               (CMSTIN.1)       
      TOTAL FLOW IS ZERO. BLOCK IS BYPASSED.                                    
 

      UOS BLOCK COOLER2  MODEL: HEATER                                            TIME =      3.00

  *   WARNING WHILE EXECUTING UNIT OPERATIONS BLOCK: "COOLER2" (MODEL:          
      "HEATER")                                                (UHE01.4)        
      ZERO FEED TO THE BLOCK.  BLOCK BYPASSED                                   

      UOS BLOCK FLASH3   MODEL: FLASH2                                            TIME =      3.00
      KODE = 2  NTRIAL =   3  T = 244.2500  P =  740000.      V =  0.00000      Q = -3390.30    

      UOS BLOCK COMP3    MODEL: COMPR                                             TIME =      3.00

  *   WARNING WHILE EXECUTING UNIT OPERATIONS BLOCK: "COMP3" (MODEL: "COMPR")   
                                                               (CMSTIN.1)       
      TOTAL FLOW IS ZERO. BLOCK IS BYPASSED.                                    
 

      UOS BLOCK COOLER3  MODEL: HEATER                                            TIME =      3.00

  *   WARNING WHILE EXECUTING UNIT OPERATIONS BLOCK: "COOLER3" (MODEL:          
      "HEATER")                                                (UHE01.4)        
      ZERO FEED TO THE BLOCK.  BLOCK BYPASSED                                   

      UOS BLOCK B10      MODEL: MIXER                                             TIME =      3.00
      KODE = 1  NTRIAL =   3  T = 277.7117  P = 1.000000E+06  V = 0.260230      Q =  0.00000    

      CONVERGENCE BLOCK $OLVER01  METHOD: WEGSTEIN                                TIME =      3.00
      ITER   8 For Tear Streams: 2

      --FLASH TEAR STREAM 2       
      KODE = 1  NTRIAL =   3  T = 276.4649  P = 1.000000E+06  V = 0.297576      Q =  0.00000    

  LOOP $OLVER01 ITER    8:   5 VARS NOT CONVERGED, MAX ERR/TOL      702.88        TIME =      3.00

      UOS BLOCK FLASH1   MODEL: FLASH2                                            TIME =      3.00
      KODE = 2  NTRIAL =   2  T = 322.0500  P = 2.070000E+06  V = 0.997715      Q =  108175.    

      UOS BLOCK COMP1    MODEL: COMPR                                             TIME =      3.00
      OUTLET TEMP =   326.2       OUTLET PRES =  0.2230E+07   INDICATED HP =   1257.       BRAKE HP =   1257.    
      ISENTR TEMP =   326.2      CALC ISENTR EFF =   1.000      ISENTR HP =   1257.      HP =   10.92    

      UOS BLOCK COOLER1  MODEL: HEATER                                            TIME =      3.00
      KODE = 2  NTRIAL =   4  T = 277.5500  P = 2.210000E+06  V =  0.00000      Q = -141087.    

      UOS BLOCK FLASH2   MODEL: FLASH2                                            TIME =      3.00
      KODE = 2  NTRIAL =   3  T = 283.1500  P = 1.240000E+06  V =  0.00000      Q = -98.3737    

      UOS BLOCK COMP2    MODEL: COMPR                                             TIME =      3.00

  *   WARNING WHILE EXECUTING UNIT OPERATIONS BLOCK: "COMP2" (MODEL: "COMPR")   
                                                               (CMSTIN.1)       
      TOTAL FLOW IS ZERO. BLOCK IS BYPASSED.                                    
 

      UOS BLOCK COOLER2  MODEL: HEATER                                            TIME =      3.00

  *   WARNING WHILE EXECUTING UNIT OPERATIONS BLOCK: "COOLER2" (MODEL:          
      "HEATER")                                                (UHE01.4)        
      ZERO FEED TO THE BLOCK.  BLOCK BYPASSED                                   

      UOS BLOCK FLASH3   MODEL: FLASH2                                            TIME =      3.00
      KODE = 2  NTRIAL =   3  T = 244.2500  P =  740000.      V =  0.00000      Q = -84.1272    

      UOS BLOCK COMP3    MODEL: COMPR                                             TIME =      3.00

  *   WARNING WHILE EXECUTING UNIT OPERATIONS BLOCK: "COMP3" (MODEL: "COMPR")   
                                                               (CMSTIN.1)       
      TOTAL FLOW IS ZERO. BLOCK IS BYPASSED.                                    
 

      UOS BLOCK COOLER3  MODEL: HEATER                                            TIME =      3.00

  *   WARNING WHILE EXECUTING UNIT OPERATIONS BLOCK: "COOLER3" (MODEL:          
      "HEATER")                                                (UHE01.4)        
      ZERO FEED TO THE BLOCK.  BLOCK BYPASSED                                   

      UOS BLOCK B10      MODEL: MIXER                                             TIME =      3.00
      KODE = 1  NTRIAL =   3  T = 275.7506  P = 1.000000E+06  V = 0.212219      Q =  0.00000    

      CONVERGENCE BLOCK $OLVER01  METHOD: WEGSTEIN                                TIME =      3.00
      ITER   9 For Tear Streams: 2

      --FLASH TEAR STREAM 2       
      KODE = 1  NTRIAL =   3  T = 275.7511  P = 1.000000E+06  V = 0.212230      Q =  0.00000    

  LOOP $OLVER01 ITER    9:   5 VARS NOT CONVERGED, MAX ERR/TOL      2726.3        TIME =      3.00

      UOS BLOCK FLASH1   MODEL: FLASH2                                            TIME =      3.00
      KODE = 2  NTRIAL =   2  T = 322.0500  P = 2.070000E+06  V = 0.920012      Q =  127121.    

      UOS BLOCK COMP1    MODEL: COMPR                                             TIME =      3.00
      OUTLET TEMP =   326.2       OUTLET PRES =  0.2230E+07   INDICATED HP =   1324.       BRAKE HP =   1324.    
      ISENTR TEMP =   326.2      CALC ISENTR EFF =   1.000      ISENTR HP =   1324.      HP =   12.12    

      UOS BLOCK COOLER1  MODEL: HEATER                                            TIME =      3.00
      KODE = 2  NTRIAL =   4  T = 277.5500  P = 2.210000E+06  V =  0.00000      Q = -148681.    

      UOS BLOCK FLASH2   MODEL: FLASH2                                            TIME =      3.00
      KODE = 2  NTRIAL =   3  T = 283.1500  P = 1.240000E+06  V =  0.00000      Q = -3934.23    

      UOS BLOCK COMP2    MODEL: COMPR                                             TIME =      3.00

  *   WARNING WHILE EXECUTING UNIT OPERATIONS BLOCK: "COMP2" (MODEL: "COMPR")   
                                                               (CMSTIN.1)       
      TOTAL FLOW IS ZERO. BLOCK IS BYPASSED.                                    
 

      UOS BLOCK COOLER2  MODEL: HEATER                                            TIME =      3.00

  *   WARNING WHILE EXECUTING UNIT OPERATIONS BLOCK: "COOLER2" (MODEL:          
      "HEATER")                                                (UHE01.4)        
      ZERO FEED TO THE BLOCK.  BLOCK BYPASSED                                   

      UOS BLOCK FLASH3   MODEL: FLASH2                                            TIME =      3.00
      KODE = 2  NTRIAL =   3  T = 244.2500  P =  740000.      V =  0.00000      Q = -3363.68    

      UOS BLOCK COMP3    MODEL: COMPR                                             TIME =      3.00

  *   WARNING WHILE EXECUTING UNIT OPERATIONS BLOCK: "COMP3" (MODEL: "COMPR")   
                                                               (CMSTIN.1)       
      TOTAL FLOW IS ZERO. BLOCK IS BYPASSED.                                    
 

      UOS BLOCK COOLER3  MODEL: HEATER                                            TIME =      3.00

  *   WARNING WHILE EXECUTING UNIT OPERATIONS BLOCK: "COOLER3" (MODEL:          
      "HEATER")                                                (UHE01.4)        
      ZERO FEED TO THE BLOCK.  BLOCK BYPASSED                                   

      UOS BLOCK B10      MODEL: MIXER                                             TIME =      3.00
      KODE = 1  NTRIAL =   3  T = 275.5969  P = 1.000000E+06  V = 0.204822      Q =  0.00000    

      CONVERGENCE BLOCK $OLVER01  METHOD: WEGSTEIN                                TIME =      3.00
      ITER  10 For Tear Streams: 2

      --FLASH TEAR STREAM 2       
      KODE = 1  NTRIAL =   3  T = 275.3859  P = 1.000000E+06  V = 0.212583      Q =  0.00000    

  LOOP $OLVER01 ITER   10:   5 VARS NOT CONVERGED, MAX ERR/TOL      509.05        TIME =      3.00

      UOS BLOCK FLASH1   MODEL: FLASH2                                            TIME =      3.00
      KODE = 2  NTRIAL =   2  T = 322.0500  P = 2.070000E+06  V = 0.944219      Q =  140627.    

      UOS BLOCK COMP1    MODEL: COMPR                                             TIME =      3.00
      OUTLET TEMP =   326.2       OUTLET PRES =  0.2230E+07   INDICATED HP =   1469.       BRAKE HP =   1469.    
      ISENTR TEMP =   326.2      CALC ISENTR EFF =   1.000      ISENTR HP =   1469.      HP =   14.92    

      UOS BLOCK COOLER1  MODEL: HEATER                                            TIME =      3.00
      KODE = 2  NTRIAL =   4  T = 277.5500  P = 2.210000E+06  V =  0.00000      Q = -165041.    

      UOS BLOCK FLASH2   MODEL: FLASH2                                            TIME =      3.00
      KODE = 2  NTRIAL =   3  T = 283.1500  P = 1.240000E+06  V =  0.00000      Q = -2966.88    

      UOS BLOCK COMP2    MODEL: COMPR                                             TIME =      3.00

  *   WARNING WHILE EXECUTING UNIT OPERATIONS BLOCK: "COMP2" (MODEL: "COMPR")   
                                                               (CMSTIN.1)       
      TOTAL FLOW IS ZERO. BLOCK IS BYPASSED.                                    
 

      UOS BLOCK COOLER2  MODEL: HEATER                                            TIME =      3.00

  *   WARNING WHILE EXECUTING UNIT OPERATIONS BLOCK: "COOLER2" (MODEL:          
      "HEATER")                                                (UHE01.4)        
      ZERO FEED TO THE BLOCK.  BLOCK BYPASSED                                   

      UOS BLOCK FLASH3   MODEL: FLASH2                                            TIME =      3.00
      KODE = 2  NTRIAL =   3  T = 244.2500  P =  740000.      V =  0.00000      Q = -2536.36    

      UOS BLOCK COMP3    MODEL: COMPR                                             TIME =      3.00

  *   WARNING WHILE EXECUTING UNIT OPERATIONS BLOCK: "COMP3" (MODEL: "COMPR")   
                                                               (CMSTIN.1)       
      TOTAL FLOW IS ZERO. BLOCK IS BYPASSED.                                    
 

      UOS BLOCK COOLER3  MODEL: HEATER                                            TIME =      3.00

  *   WARNING WHILE EXECUTING UNIT OPERATIONS BLOCK: "COOLER3" (MODEL:          
      "HEATER")                                                (UHE01.4)        
      ZERO FEED TO THE BLOCK.  BLOCK BYPASSED                                   

      UOS BLOCK B10      MODEL: MIXER                                             TIME =      3.00
      KODE = 1  NTRIAL =   3  T = 275.1859  P = 1.000000E+06  V = 0.192005      Q =  0.00000    

      CONVERGENCE BLOCK $OLVER01  METHOD: WEGSTEIN                                TIME =      3.00
      ITER  11 For Tear Streams: 2

      --FLASH TEAR STREAM 2       
      KODE = 1  NTRIAL =   3  T = 275.1860  P = 1.000000E+06  V = 0.192007      Q =  0.00000    

  LOOP $OLVER01 ITER   11:   5 VARS NOT CONVERGED, MAX ERR/TOL      761.36        TIME =      3.00

      UOS BLOCK FLASH1   MODEL: FLASH2                                            TIME =      3.01
      KODE = 2  NTRIAL =   2  T = 322.0500  P = 2.070000E+06  V = 0.929560      Q =  150766.    

      UOS BLOCK COMP1    MODEL: COMPR                                             TIME =      3.01
      OUTLET TEMP =   326.2       OUTLET PRES =  0.2230E+07   INDICATED HP =   1535.       BRAKE HP =   1535.    
      ISENTR TEMP =   326.2      CALC ISENTR EFF =   1.000      ISENTR HP =   1535.      HP =   16.29    

      UOS BLOCK COOLER1  MODEL: HEATER                                            TIME =      3.01
      KODE = 2  NTRIAL =   4  T = 277.5500  P = 2.210000E+06  V =  0.00000      Q = -172489.    

      UOS BLOCK FLASH2   MODEL: FLASH2                                            TIME =      3.01
      KODE = 2  NTRIAL =   3  T = 283.1500  P = 1.240000E+06  V =  0.00000      Q = -3976.27    

      UOS BLOCK COMP2    MODEL: COMPR                                             TIME =      3.01

  *   WARNING WHILE EXECUTING UNIT OPERATIONS BLOCK: "COMP2" (MODEL: "COMPR")   
                                                               (CMSTIN.1)       
      TOTAL FLOW IS ZERO. BLOCK IS BYPASSED.                                    
 

      UOS BLOCK COOLER2  MODEL: HEATER                                            TIME =      3.01

  *   WARNING WHILE EXECUTING UNIT OPERATIONS BLOCK: "COOLER2" (MODEL:          
      "HEATER")                                                (UHE01.4)        
      ZERO FEED TO THE BLOCK.  BLOCK BYPASSED                                   

      UOS BLOCK FLASH3   MODEL: FLASH2                                            TIME =      3.01
      KODE = 2  NTRIAL =   3  T = 244.2500  P =  740000.      V =  0.00000      Q = -3398.73    

      UOS BLOCK COMP3    MODEL: COMPR                                             TIME =      3.01

  *   WARNING WHILE EXECUTING UNIT OPERATIONS BLOCK: "COMP3" (MODEL: "COMPR")   
                                                               (CMSTIN.1)       
      TOTAL FLOW IS ZERO. BLOCK IS BYPASSED.                                    
 

      UOS BLOCK COOLER3  MODEL: HEATER                                            TIME =      3.01

  *   WARNING WHILE EXECUTING UNIT OPERATIONS BLOCK: "COOLER3" (MODEL:          
      "HEATER")                                                (UHE01.4)        
      ZERO FEED TO THE BLOCK.  BLOCK BYPASSED                                   

      UOS BLOCK B10      MODEL: MIXER                                             TIME =      3.01
      KODE = 1  NTRIAL =   3  T = 275.0674  P = 1.000000E+06  V = 0.186465      Q =  0.00000    

      CONVERGENCE BLOCK $OLVER01  METHOD: WEGSTEIN                                TIME =      3.01
      ITER  12 For Tear Streams: 2

      --FLASH TEAR STREAM 2       
      KODE = 1  NTRIAL =   3  T = 274.3670  P = 1.000000E+06  V = 0.211936      Q =  0.00000    

  LOOP $OLVER01 ITER   12:   5 VARS NOT CONVERGED, MAX ERR/TOL      428.10        TIME =      3.01

      UOS BLOCK FLASH1   MODEL: FLASH2                                            TIME =      3.01
      KODE = 2  NTRIAL =   2  T = 322.0500  P = 2.070000E+06  V = 0.998148      Q =  180893.    

      UOS BLOCK COMP1    MODEL: COMPR                                             TIME =      3.01
      OUTLET TEMP =   326.2       OUTLET PRES =  0.2230E+07   INDICATED HP =   1898.       BRAKE HP =   1898.    
      ISENTR TEMP =   326.2      CALC ISENTR EFF =   1.000      ISENTR HP =   1898.      HP =   24.91    

      UOS BLOCK COOLER1  MODEL: HEATER                                            TIME =      3.01
      KODE = 2  NTRIAL =   4  T = 277.5500  P = 2.210000E+06  V =  0.00000      Q = -213164.    

      UOS BLOCK FLASH2   MODEL: FLASH2                                            TIME =      3.01
      KODE = 2  NTRIAL =   3  T = 283.1500  P = 1.240000E+06  V =  0.00000      Q = -120.405    

      UOS BLOCK COMP2    MODEL: COMPR                                             TIME =      3.01

  *   WARNING WHILE EXECUTING UNIT OPERATIONS BLOCK: "COMP2" (MODEL: "COMPR")   
                                                               (CMSTIN.1)       
      TOTAL FLOW IS ZERO. BLOCK IS BYPASSED.                                    
 

      UOS BLOCK COOLER2  MODEL: HEATER                                            TIME =      3.01

  *   WARNING WHILE EXECUTING UNIT OPERATIONS BLOCK: "COOLER2" (MODEL:          
      "HEATER")                                                (UHE01.4)        
      ZERO FEED TO THE BLOCK.  BLOCK BYPASSED                                   

      UOS BLOCK FLASH3   MODEL: FLASH2                                            TIME =      3.01
      KODE = 2  NTRIAL =   3  T = 244.2500  P =  740000.      V =  0.00000      Q = -102.947    

      UOS BLOCK COMP3    MODEL: COMPR                                             TIME =      3.01

  *   WARNING WHILE EXECUTING UNIT OPERATIONS BLOCK: "COMP3" (MODEL: "COMPR")   
                                                               (CMSTIN.1)       
      TOTAL FLOW IS ZERO. BLOCK IS BYPASSED.                                    
 

      UOS BLOCK COOLER3  MODEL: HEATER                                            TIME =      3.01

  *   WARNING WHILE EXECUTING UNIT OPERATIONS BLOCK: "COOLER3" (MODEL:          
      "HEATER")                                                (UHE01.4)        
      ZERO FEED TO THE BLOCK.  BLOCK BYPASSED                                   

      UOS BLOCK B10      MODEL: MIXER                                             TIME =      3.01
      KODE = 1  NTRIAL =   3  T = 274.1802  P = 1.000000E+06  V = 0.165742      Q =  0.00000    

      CONVERGENCE BLOCK $OLVER01  METHOD: WEGSTEIN                                TIME =      3.01
      ITER  13 For Tear Streams: 2

      --FLASH TEAR STREAM 2       
      KODE = 1  NTRIAL =   3  T = 274.1805  P = 1.000000E+06  V = 0.165750      Q =  0.00000    

  LOOP $OLVER01 ITER   13:   5 VARS NOT CONVERGED, MAX ERR/TOL      1816.4        TIME =      3.01

      UOS BLOCK FLASH1   MODEL: FLASH2                                            TIME =      3.01
      KODE = 2  NTRIAL =   2  T = 322.0500  P = 2.070000E+06  V = 0.944424      Q =  198516.    

      UOS BLOCK COMP1    MODEL: COMPR                                             TIME =      3.01
      OUTLET TEMP =   326.2       OUTLET PRES =  0.2230E+07   INDICATED HP =   1965.       BRAKE HP =   1965.    
      ISENTR TEMP =   326.2      CALC ISENTR EFF =   1.000      ISENTR HP =   1965.      HP =   26.68    

      UOS BLOCK COOLER1  MODEL: HEATER                                            TIME =      3.01
      KODE = 2  NTRIAL =   4  T = 277.5500  P = 2.210000E+06  V =  0.00000      Q = -220697.    

      UOS BLOCK FLASH2   MODEL: FLASH2                                            TIME =      3.01
      KODE = 2  NTRIAL =   3  T = 283.1500  P = 1.240000E+06  V =  0.00000      Q = -3951.87    

      UOS BLOCK COMP2    MODEL: COMPR                                             TIME =      3.01

  *   WARNING WHILE EXECUTING UNIT OPERATIONS BLOCK: "COMP2" (MODEL: "COMPR")   
                                                               (CMSTIN.1)       
      TOTAL FLOW IS ZERO. BLOCK IS BYPASSED.                                    
 

      UOS BLOCK COOLER2  MODEL: HEATER                                            TIME =      3.01

  *   WARNING WHILE EXECUTING UNIT OPERATIONS BLOCK: "COOLER2" (MODEL:          
      "HEATER")                                                (UHE01.4)        
      ZERO FEED TO THE BLOCK.  BLOCK BYPASSED                                   

      UOS BLOCK FLASH3   MODEL: FLASH2                                            TIME =      3.01
      KODE = 2  NTRIAL =   3  T = 244.2500  P =  740000.      V =  0.00000      Q = -3378.39    

      UOS BLOCK COMP3    MODEL: COMPR                                             TIME =      3.01

  *   WARNING WHILE EXECUTING UNIT OPERATIONS BLOCK: "COMP3" (MODEL: "COMPR")   
                                                               (CMSTIN.1)       
      TOTAL FLOW IS ZERO. BLOCK IS BYPASSED.                                    
 

      UOS BLOCK COOLER3  MODEL: HEATER                                            TIME =      3.01

  *   WARNING WHILE EXECUTING UNIT OPERATIONS BLOCK: "COOLER3" (MODEL:          
      "HEATER")                                                (UHE01.4)        
      ZERO FEED TO THE BLOCK.  BLOCK BYPASSED                                   

      UOS BLOCK B10      MODEL: MIXER                                             TIME =      3.01
      KODE = 1  NTRIAL =   2  T = 274.1203  P = 1.000000E+06  V = 0.161995      Q =  0.00000    

      CONVERGENCE BLOCK $OLVER01  METHOD: WEGSTEIN                                TIME =      3.01
      ITER  14 For Tear Streams: 2

      --FLASH TEAR STREAM 2       
      KODE = 1  NTRIAL =   3  T = 273.9834  P = 1.000000E+06  V = 0.167716      Q =  0.00000    

  LOOP $OLVER01 ITER   14:   5 VARS NOT CONVERGED, MAX ERR/TOL      347.96        TIME =      3.01

      UOS BLOCK FLASH1   MODEL: FLASH2                                            TIME =      3.01
      KODE = 2  NTRIAL =   1  T = 322.0500  P = 2.070000E+06  V = 0.960457      Q =  212116.    

      UOS BLOCK COMP1    MODEL: COMPR                                             TIME =      3.01
      OUTLET TEMP =   326.2       OUTLET PRES =  0.2230E+07   INDICATED HP =   2109.       BRAKE HP =   2109.    
      ISENTR TEMP =   326.2      CALC ISENTR EFF =   1.000      ISENTR HP =   2109.      HP =   30.75    

      UOS BLOCK COOLER1  MODEL: HEATER                                            TIME =      3.01
      KODE = 2  NTRIAL =   4  T = 277.5500  P = 2.210000E+06  V =  0.00000      Q = -236978.    

      UOS BLOCK FLASH2   MODEL: FLASH2                                            TIME =      3.01
      KODE = 2  NTRIAL =   3  T = 283.1500  P = 1.240000E+06  V =  0.00000      Q = -2968.55    

      UOS BLOCK COMP2    MODEL: COMPR                                             TIME =      3.01

  *   WARNING WHILE EXECUTING UNIT OPERATIONS BLOCK: "COMP2" (MODEL: "COMPR")   
                                                               (CMSTIN.1)       
      TOTAL FLOW IS ZERO. BLOCK IS BYPASSED.                                    
 

      UOS BLOCK COOLER2  MODEL: HEATER                                            TIME =      3.01

  *   WARNING WHILE EXECUTING UNIT OPERATIONS BLOCK: "COOLER2" (MODEL:          
      "HEATER")                                                (UHE01.4)        
      ZERO FEED TO THE BLOCK.  BLOCK BYPASSED                                   

      UOS BLOCK FLASH3   MODEL: FLASH2                                            TIME =      3.01
      KODE = 2  NTRIAL =   3  T = 244.2500  P =  740000.      V =  0.00000      Q = -2537.64    

      UOS BLOCK COMP3    MODEL: COMPR                                             TIME =      3.01

  *   WARNING WHILE EXECUTING UNIT OPERATIONS BLOCK: "COMP3" (MODEL: "COMPR")   
                                                               (CMSTIN.1)       
      TOTAL FLOW IS ZERO. BLOCK IS BYPASSED.                                    
 

      UOS BLOCK COOLER3  MODEL: HEATER                                            TIME =      3.01

  *   WARNING WHILE EXECUTING UNIT OPERATIONS BLOCK: "COOLER3" (MODEL:          
      "HEATER")                                                (UHE01.4)        
      ZERO FEED TO THE BLOCK.  BLOCK BYPASSED                                   

      UOS BLOCK B10      MODEL: MIXER                                             TIME =      3.01
      KODE = 1  NTRIAL =   3  T = 273.9168  P = 1.000000E+06  V = 0.155475      Q =  0.00000    

      CONVERGENCE BLOCK $OLVER01  METHOD: WEGSTEIN                                TIME =      3.01
      ITER  15 For Tear Streams: 2

      --FLASH TEAR STREAM 2       
      KODE = 1  NTRIAL =   2  T = 273.9169  P = 1.000000E+06  V = 0.155472      Q =  0.00000    

  LOOP $OLVER01 ITER   15:   5 VARS NOT CONVERGED, MAX ERR/TOL      556.81        TIME =      3.01

      UOS BLOCK FLASH1   MODEL: FLASH2                                            TIME =      3.01
      KODE = 2  NTRIAL =   2  T = 322.0500  P = 2.070000E+06  V = 0.949221      Q =  222060.    

      UOS BLOCK COMP1    MODEL: COMPR                                             TIME =      3.01
      OUTLET TEMP =   326.2       OUTLET PRES =  0.2230E+07   INDICATED HP =   2175.       BRAKE HP =   2175.    
      ISENTR TEMP =   326.2      CALC ISENTR EFF =   1.000      ISENTR HP =   2175.      HP =   32.70    

      UOS BLOCK COOLER1  MODEL: HEATER                                            TIME =      3.01
      KODE = 2  NTRIAL =   4  T = 277.5500  P = 2.210000E+06  V =  0.00000      Q = -244422.    

      UOS BLOCK FLASH2   MODEL: FLASH2                                            TIME =      3.01
      KODE = 2  NTRIAL =   3  T = 283.1500  P = 1.240000E+06  V =  0.00000      Q = -3977.65    

      UOS BLOCK COMP2    MODEL: COMPR                                             TIME =      3.01

  *   WARNING WHILE EXECUTING UNIT OPERATIONS BLOCK: "COMP2" (MODEL: "COMPR")   
                                                               (CMSTIN.1)       
      TOTAL FLOW IS ZERO. BLOCK IS BYPASSED.                                    
 

      UOS BLOCK COOLER2  MODEL: HEATER                                            TIME =      3.01

  *   WARNING WHILE EXECUTING UNIT OPERATIONS BLOCK: "COOLER2" (MODEL:          
      "HEATER")                                                (UHE01.4)        
      ZERO FEED TO THE BLOCK.  BLOCK BYPASSED                                   

      UOS BLOCK FLASH3   MODEL: FLASH2                                            TIME =      3.01
      KODE = 2  NTRIAL =   3  T = 244.2500  P =  740000.      V =  0.00000      Q = -3399.88    

      UOS BLOCK COMP3    MODEL: COMPR                                             TIME =      3.01

  *   WARNING WHILE EXECUTING UNIT OPERATIONS BLOCK: "COMP3" (MODEL: "COMPR")   
                                                               (CMSTIN.1)       
      TOTAL FLOW IS ZERO. BLOCK IS BYPASSED.                                    
 

      UOS BLOCK COOLER3  MODEL: HEATER                                            TIME =      3.01

  *   WARNING WHILE EXECUTING UNIT OPERATIONS BLOCK: "COOLER3" (MODEL:          
      "HEATER")                                                (UHE01.4)        
      ZERO FEED TO THE BLOCK.  BLOCK BYPASSED                                   

      UOS BLOCK B10      MODEL: MIXER                                             TIME =      3.01
      KODE = 1  NTRIAL =   2  T = 273.8666  P = 1.000000E+06  V = 0.152418      Q =  0.00000    

      CONVERGENCE BLOCK $OLVER01  METHOD: WEGSTEIN                                TIME =      3.01
      ITER  16 For Tear Streams: 2

      --FLASH TEAR STREAM 2       
      KODE = 1  NTRIAL =   3  T = 273.3926  P = 1.000000E+06  V = 0.171871      Q =  0.00000    

  LOOP $OLVER01 ITER   16:   5 VARS NOT CONVERGED, MAX ERR/TOL      308.99        TIME =      3.01

      UOS BLOCK FLASH1   MODEL: FLASH2                                            TIME =      3.01
      KODE = 2  NTRIAL =   2  T = 322.0500  P = 2.070000E+06  V = 0.998443      Q =  252664.    

      UOS BLOCK COMP1    MODEL: COMPR                                             TIME =      3.01
      OUTLET TEMP =   326.2       OUTLET PRES =  0.2230E+07   INDICATED HP =   2538.       BRAKE HP =   2538.    
      ISENTR TEMP =   326.2      CALC ISENTR EFF =   1.000      ISENTR HP =   2538.      HP =   44.51    

      UOS BLOCK COOLER1  MODEL: HEATER                                            TIME =      3.01
      KODE = 2  NTRIAL =   4  T = 277.5500  P = 2.210000E+06  V =  0.00000      Q = -285029.    

      UOS BLOCK FLASH2   MODEL: FLASH2                                            TIME =      3.01
      KODE = 2  NTRIAL =   3  T = 283.1500  P = 1.240000E+06  V =  0.00000      Q = -135.256    

      UOS BLOCK COMP2    MODEL: COMPR                                             TIME =      3.01

  *   WARNING WHILE EXECUTING UNIT OPERATIONS BLOCK: "COMP2" (MODEL: "COMPR")   
                                                               (CMSTIN.1)       
      TOTAL FLOW IS ZERO. BLOCK IS BYPASSED.                                    
 

      UOS BLOCK COOLER2  MODEL: HEATER                                            TIME =      3.01

  *   WARNING WHILE EXECUTING UNIT OPERATIONS BLOCK: "COOLER2" (MODEL:          
      "HEATER")                                                (UHE01.4)        
      ZERO FEED TO THE BLOCK.  BLOCK BYPASSED                                   

      UOS BLOCK FLASH3   MODEL: FLASH2                                            TIME =      3.01
      KODE = 2  NTRIAL =   3  T = 244.2500  P =  740000.      V =  0.00000      Q = -115.635    

      UOS BLOCK COMP3    MODEL: COMPR                                             TIME =      3.01

  *   WARNING WHILE EXECUTING UNIT OPERATIONS BLOCK: "COMP3" (MODEL: "COMPR")   
                                                               (CMSTIN.1)       
      TOTAL FLOW IS ZERO. BLOCK IS BYPASSED.                                    
 

      UOS BLOCK COOLER3  MODEL: HEATER                                            TIME =      3.01

  *   WARNING WHILE EXECUTING UNIT OPERATIONS BLOCK: "COOLER3" (MODEL:          
      "HEATER")                                                (UHE01.4)        
      ZERO FEED TO THE BLOCK.  BLOCK BYPASSED                                   

      UOS BLOCK B10      MODEL: MIXER                                             TIME =      3.02
      KODE = 1  NTRIAL =   3  T = 273.3539  P = 1.000000E+06  V = 0.140979      Q =  0.00000    

      CONVERGENCE BLOCK $OLVER01  METHOD: WEGSTEIN                                TIME =      3.02
      ITER  17 For Tear Streams: 2

      --FLASH TEAR STREAM 2       
      KODE = 1  NTRIAL =   2  T = 273.3539  P = 1.000000E+06  V = 0.140978      Q =  0.00000    

  LOOP $OLVER01 ITER   17:   5 VARS NOT CONVERGED, MAX ERR/TOL      1361.2        TIME =      3.02

      UOS BLOCK FLASH1   MODEL: FLASH2                                            TIME =      3.02
      KODE = 2  NTRIAL =   2  T = 322.0500  P = 2.070000E+06  V = 0.957410      Q =  269724.    

      UOS BLOCK COMP1    MODEL: COMPR                                             TIME =      3.02
      OUTLET TEMP =   326.2       OUTLET PRES =  0.2230E+07   INDICATED HP =   2604.       BRAKE HP =   2604.    
      ISENTR TEMP =   326.2      CALC ISENTR EFF =   1.000      ISENTR HP =   2604.      HP =   46.86    

      UOS BLOCK COOLER1  MODEL: HEATER                                            TIME =      3.02
      KODE = 2  NTRIAL =   4  T = 277.5500  P = 2.210000E+06  V =  0.00000      Q = -292536.    

      UOS BLOCK FLASH2   MODEL: FLASH2                                            TIME =      3.02
      KODE = 2  NTRIAL =   3  T = 283.1500  P = 1.240000E+06  V =  0.00000      Q = -3959.46    

      UOS BLOCK COMP2    MODEL: COMPR                                             TIME =      3.02

  *   WARNING WHILE EXECUTING UNIT OPERATIONS BLOCK: "COMP2" (MODEL: "COMPR")   
                                                               (CMSTIN.1)       
      TOTAL FLOW IS ZERO. BLOCK IS BYPASSED.                                    
 

      UOS BLOCK COOLER2  MODEL: HEATER                                            TIME =      3.02

  *   WARNING WHILE EXECUTING UNIT OPERATIONS BLOCK: "COOLER2" (MODEL:          
      "HEATER")                                                (UHE01.4)        
      ZERO FEED TO THE BLOCK.  BLOCK BYPASSED                                   

      UOS BLOCK FLASH3   MODEL: FLASH2                                            TIME =      3.02
      KODE = 2  NTRIAL =   3  T = 244.2500  P =  740000.      V =  0.00000      Q = -3384.72    

      UOS BLOCK COMP3    MODEL: COMPR                                             TIME =      3.02

  *   WARNING WHILE EXECUTING UNIT OPERATIONS BLOCK: "COMP3" (MODEL: "COMPR")   
                                                               (CMSTIN.1)       
      TOTAL FLOW IS ZERO. BLOCK IS BYPASSED.                                    
 

      UOS BLOCK COOLER3  MODEL: HEATER                                            TIME =      3.02

  *   WARNING WHILE EXECUTING UNIT OPERATIONS BLOCK: "COOLER3" (MODEL:          
      "HEATER")                                                (UHE01.4)        
      ZERO FEED TO THE BLOCK.  BLOCK BYPASSED                                   

      UOS BLOCK B10      MODEL: MIXER                                             TIME =      3.02
      KODE = 1  NTRIAL =   1  T = 273.3300  P = 1.000000E+06  V = 0.138723      Q =  0.00000    

      CONVERGENCE BLOCK $OLVER01  METHOD: WEGSTEIN                                TIME =      3.02
      ITER  18 For Tear Streams: 2

      --FLASH TEAR STREAM 2       
      KODE = 1  NTRIAL =   3  T = 273.2269  P = 1.000000E+06  V = 0.143223      Q =  0.00000    

  LOOP $OLVER01 ITER   18:   5 VARS NOT CONVERGED, MAX ERR/TOL      264.87        TIME =      3.02

      UOS BLOCK FLASH1   MODEL: FLASH2                                            TIME =      3.02
      KODE = 2  NTRIAL =   1  T = 322.0500  P = 2.070000E+06  V = 0.969373      Q =  283386.    

      UOS BLOCK COMP1    MODEL: COMPR                                             TIME =      3.02
      OUTLET TEMP =   326.2       OUTLET PRES =  0.2230E+07   INDICATED HP =   2748.       BRAKE HP =   2748.    
      ISENTR TEMP =   326.2      CALC ISENTR EFF =   1.000      ISENTR HP =   2748.      HP =   52.21    

      UOS BLOCK COOLER1  MODEL: HEATER                                            TIME =      3.02
      KODE = 2  NTRIAL =   4  T = 277.5500  P = 2.210000E+06  V =  0.00000      Q = -308794.    

      UOS BLOCK FLASH2   MODEL: FLASH2                                            TIME =      3.02
      KODE = 2  NTRIAL =   3  T = 283.1500  P = 1.240000E+06  V =  0.00000      Q = -2968.30    

      UOS BLOCK COMP2    MODEL: COMPR                                             TIME =      3.02

  *   WARNING WHILE EXECUTING UNIT OPERATIONS BLOCK: "COMP2" (MODEL: "COMPR")   
                                                               (CMSTIN.1)       
      TOTAL FLOW IS ZERO. BLOCK IS BYPASSED.                                    
 

      UOS BLOCK COOLER2  MODEL: HEATER                                            TIME =      3.02

  *   WARNING WHILE EXECUTING UNIT OPERATIONS BLOCK: "COOLER2" (MODEL:          
      "HEATER")                                                (UHE01.4)        
      ZERO FEED TO THE BLOCK.  BLOCK BYPASSED                                   

      UOS BLOCK FLASH3   MODEL: FLASH2                                            TIME =      3.02
      KODE = 2  NTRIAL =   3  T = 244.2500  P =  740000.      V =  0.00000      Q = -2537.35    

      UOS BLOCK COMP3    MODEL: COMPR                                             TIME =      3.02

  *   WARNING WHILE EXECUTING UNIT OPERATIONS BLOCK: "COMP3" (MODEL: "COMPR")   
                                                               (CMSTIN.1)       
      TOTAL FLOW IS ZERO. BLOCK IS BYPASSED.                                    
 

      UOS BLOCK COOLER3  MODEL: HEATER                                            TIME =      3.02

  *   WARNING WHILE EXECUTING UNIT OPERATIONS BLOCK: "COOLER3" (MODEL:          
      "HEATER")                                                (UHE01.4)        
      ZERO FEED TO THE BLOCK.  BLOCK BYPASSED                                   

      UOS BLOCK B10      MODEL: MIXER                                             TIME =      3.02
      KODE = 1  NTRIAL =   3  T = 273.2068  P = 1.000000E+06  V = 0.134729      Q =  0.00000    

      CONVERGENCE BLOCK $OLVER01  METHOD: WEGSTEIN                                TIME =      3.02
      ITER  19 For Tear Streams: 2

      --FLASH TEAR STREAM 2       
      KODE = 1  NTRIAL =   2  T = 273.2069  P = 1.000000E+06  V = 0.134729      Q =  0.00000    

  LOOP $OLVER01 ITER   19:   5 VARS NOT CONVERGED, MAX ERR/TOL      439.08        TIME =      3.02

      UOS BLOCK FLASH1   MODEL: FLASH2                                            TIME =      3.02
      KODE = 2  NTRIAL =   2  T = 322.0500  P = 2.070000E+06  V = 0.960290      Q =  293236.    

      UOS BLOCK COMP1    MODEL: COMPR                                             TIME =      3.02
      OUTLET TEMP =   326.2       OUTLET PRES =  0.2230E+07   INDICATED HP =   2813.       BRAKE HP =   2813.    
      ISENTR TEMP =   326.2      CALC ISENTR EFF =   1.000      ISENTR HP =   2813.      HP =   54.74    

      UOS BLOCK COOLER1  MODEL: HEATER                                            TIME =      3.02
      KODE = 2  NTRIAL =   4  T = 277.5500  P = 2.210000E+06  V =  0.00000      Q = -316236.    

      UOS BLOCK FLASH2   MODEL: FLASH2                                            TIME =      3.02
      KODE = 2  NTRIAL =   3  T = 283.1500  P = 1.240000E+06  V =  0.00000      Q = -3978.09    

      UOS BLOCK COMP2    MODEL: COMPR                                             TIME =      3.02

  *   WARNING WHILE EXECUTING UNIT OPERATIONS BLOCK: "COMP2" (MODEL: "COMPR")   
                                                               (CMSTIN.1)       
      TOTAL FLOW IS ZERO. BLOCK IS BYPASSED.                                    
 

      UOS BLOCK COOLER2  MODEL: HEATER                                            TIME =      3.02

  *   WARNING WHILE EXECUTING UNIT OPERATIONS BLOCK: "COOLER2" (MODEL:          
      "HEATER")                                                (UHE01.4)        
      ZERO FEED TO THE BLOCK.  BLOCK BYPASSED                                   

      UOS BLOCK FLASH3   MODEL: FLASH2                                            TIME =      3.02
      KODE = 2  NTRIAL =   3  T = 244.2500  P =  740000.      V =  0.00000      Q = -3400.25    

      UOS BLOCK COMP3    MODEL: COMPR                                             TIME =      3.02

  *   WARNING WHILE EXECUTING UNIT OPERATIONS BLOCK: "COMP3" (MODEL: "COMPR")   
                                                               (CMSTIN.1)       
      TOTAL FLOW IS ZERO. BLOCK IS BYPASSED.                                    
 

      UOS BLOCK COOLER3  MODEL: HEATER                                            TIME =      3.02

  *   WARNING WHILE EXECUTING UNIT OPERATIONS BLOCK: "COOLER3" (MODEL:          
      "HEATER")                                                (UHE01.4)        
      ZERO FEED TO THE BLOCK.  BLOCK BYPASSED                                   

      UOS BLOCK B10      MODEL: MIXER                                             TIME =      3.02
      KODE = 1  NTRIAL =   1  T = 273.1856  P = 1.000000E+06  V = 0.132801      Q =  0.00000    

      CONVERGENCE BLOCK $OLVER01  METHOD: WEGSTEIN                                TIME =      3.02
      ITER  20 For Tear Streams: 2

      --FLASH TEAR STREAM 2       
      KODE = 1  NTRIAL =   3  T = 272.8281  P = 1.000000E+06  V = 0.148501      Q =  0.00000    

  LOOP $OLVER01 ITER   20:   5 VARS NOT CONVERGED, MAX ERR/TOL      241.90        TIME =      3.02

      UOS BLOCK FLASH1   MODEL: FLASH2                                            TIME =      3.02
      KODE = 2  NTRIAL =   2  T = 322.0500  P = 2.070000E+06  V = 0.998652      Q =  324093.    

      UOS BLOCK COMP1    MODEL: COMPR                                             TIME =      3.02
      OUTLET TEMP =   326.2       OUTLET PRES =  0.2230E+07   INDICATED HP =   3176.       BRAKE HP =   3176.    
      ISENTR TEMP =   326.2      CALC ISENTR EFF =   1.000      ISENTR HP =   3176.      HP =   69.73    

      UOS BLOCK COOLER1  MODEL: HEATER                                            TIME =      3.02
      KODE = 2  NTRIAL =   4  T = 277.5500  P = 2.210000E+06  V =  0.00000      Q = -356783.    

      UOS BLOCK FLASH2   MODEL: FLASH2                                            TIME =      3.02
      KODE = 2  NTRIAL =   3  T = 283.1500  P = 1.240000E+06  V =  0.00000      Q = -146.511    

      UOS BLOCK COMP2    MODEL: COMPR                                             TIME =      3.02

  *   WARNING WHILE EXECUTING UNIT OPERATIONS BLOCK: "COMP2" (MODEL: "COMPR")   
                                                               (CMSTIN.1)       
      TOTAL FLOW IS ZERO. BLOCK IS BYPASSED.                                    
 

      UOS BLOCK COOLER2  MODEL: HEATER                                            TIME =      3.02

  *   WARNING WHILE EXECUTING UNIT OPERATIONS BLOCK: "COOLER2" (MODEL:          
      "HEATER")                                                (UHE01.4)        
      ZERO FEED TO THE BLOCK.  BLOCK BYPASSED                                   

      UOS BLOCK FLASH3   MODEL: FLASH2                                            TIME =      3.02
      KODE = 2  NTRIAL =   3  T = 244.2500  P =  740000.      V =  0.00000      Q = -125.251    

      UOS BLOCK COMP3    MODEL: COMPR                                             TIME =      3.02

  *   WARNING WHILE EXECUTING UNIT OPERATIONS BLOCK: "COMP3" (MODEL: "COMPR")   
                                                               (CMSTIN.1)       
      TOTAL FLOW IS ZERO. BLOCK IS BYPASSED.                                    
 

      UOS BLOCK COOLER3  MODEL: HEATER                                            TIME =      3.03

  *   WARNING WHILE EXECUTING UNIT OPERATIONS BLOCK: "COOLER3" (MODEL:          
      "HEATER")                                                (UHE01.4)        
      ZERO FEED TO THE BLOCK.  BLOCK BYPASSED                                   

      UOS BLOCK B10      MODEL: MIXER                                             TIME =      3.03
      KODE = 1  NTRIAL =   3  T = 272.8447  P = 1.000000E+06  V = 0.125569      Q =  0.00000    

      CONVERGENCE BLOCK $OLVER01  METHOD: WEGSTEIN                                TIME =      3.03
      ITER  21 For Tear Streams: 2

      --FLASH TEAR STREAM 2       
      KODE = 1  NTRIAL =   2  T = 272.8439  P = 1.000000E+06  V = 0.125560      Q =  0.00000    

  LOOP $OLVER01 ITER   21:   5 VARS NOT CONVERGED, MAX ERR/TOL      1088.0        TIME =      3.03

      UOS BLOCK FLASH1   MODEL: FLASH2                                            TIME =      3.03
      KODE = 2  NTRIAL =   2  T = 322.0500  P = 2.070000E+06  V = 0.965472      Q =  340831.    

      UOS BLOCK COMP1    MODEL: COMPR                                             TIME =      3.03
      OUTLET TEMP =   326.2       OUTLET PRES =  0.2230E+07   INDICATED HP =   3242.       BRAKE HP =   3242.    
      ISENTR TEMP =   326.2      CALC ISENTR EFF =   1.000      ISENTR HP =   3242.      HP =   72.66    

      UOS BLOCK COOLER1  MODEL: HEATER                                            TIME =      3.03
      KODE = 2  NTRIAL =   4  T = 277.5500  P = 2.210000E+06  V =  0.00000      Q = -364276.    

      UOS BLOCK FLASH2   MODEL: FLASH2                                            TIME =      3.03
      KODE = 2  NTRIAL =   3  T = 283.1500  P = 1.240000E+06  V =  0.00000      Q = -3963.67    

      UOS BLOCK COMP2    MODEL: COMPR                                             TIME =      3.03

  *   WARNING WHILE EXECUTING UNIT OPERATIONS BLOCK: "COMP2" (MODEL: "COMPR")   
                                                               (CMSTIN.1)       
      TOTAL FLOW IS ZERO. BLOCK IS BYPASSED.                                    
 

      UOS BLOCK COOLER2  MODEL: HEATER                                            TIME =      3.03

  *   WARNING WHILE EXECUTING UNIT OPERATIONS BLOCK: "COOLER2" (MODEL:          
      "HEATER")                                                (UHE01.4)        
      ZERO FEED TO THE BLOCK.  BLOCK BYPASSED                                   

      UOS BLOCK FLASH3   MODEL: FLASH2                                            TIME =      3.03
      KODE = 2  NTRIAL =   3  T = 244.2500  P =  740000.      V =  0.00000      Q = -3388.23    

      UOS BLOCK COMP3    MODEL: COMPR                                             TIME =      3.03

  *   WARNING WHILE EXECUTING UNIT OPERATIONS BLOCK: "COMP3" (MODEL: "COMPR")   
                                                               (CMSTIN.1)       
      TOTAL FLOW IS ZERO. BLOCK IS BYPASSED.                                    
 

      UOS BLOCK COOLER3  MODEL: HEATER                                            TIME =      3.03

  *   WARNING WHILE EXECUTING UNIT OPERATIONS BLOCK: "COOLER3" (MODEL:          
      "HEATER")                                                (UHE01.4)        
      ZERO FEED TO THE BLOCK.  BLOCK BYPASSED                                   

      UOS BLOCK B10      MODEL: MIXER                                             TIME =      3.03
      KODE = 1  NTRIAL =   1  T = 272.8346  P = 1.000000E+06  V = 0.124031      Q =  0.00000    

      CONVERGENCE BLOCK $OLVER01  METHOD: WEGSTEIN                                TIME =      3.03
      ITER  22 For Tear Streams: 2

      --FLASH TEAR STREAM 2       
      KODE = 1  NTRIAL =   3  T = 272.7538  P = 1.000000E+06  V = 0.127765      Q =  0.00000    

  LOOP $OLVER01 ITER   22:   5 VARS NOT CONVERGED, MAX ERR/TOL      213.97        TIME =      3.03

      UOS BLOCK FLASH1   MODEL: FLASH2                                            TIME =      3.03
      KODE = 2  NTRIAL =   1  T = 322.0500  P = 2.070000E+06  V = 0.975008      Q =  354537.    

      UOS BLOCK COMP1    MODEL: COMPR                                             TIME =      3.03
      OUTLET TEMP =   326.2       OUTLET PRES =  0.2230E+07   INDICATED HP =   3386.       BRAKE HP =   3386.    
      ISENTR TEMP =   326.2      CALC ISENTR EFF =   1.000      ISENTR HP =   3386.      HP =   79.28    

      UOS BLOCK COOLER1  MODEL: HEATER                                            TIME =      3.03
      KODE = 2  NTRIAL =   4  T = 277.5500  P = 2.210000E+06  V =  0.00000      Q = -380528.    

      UOS BLOCK FLASH2   MODEL: FLASH2                                            TIME =      3.03
      KODE = 2  NTRIAL =   3  T = 283.1500  P = 1.240000E+06  V =  0.00000      Q = -2967.53    

      UOS BLOCK COMP2    MODEL: COMPR                                             TIME =      3.03

  *   WARNING WHILE EXECUTING UNIT OPERATIONS BLOCK: "COMP2" (MODEL: "COMPR")   
                                                               (CMSTIN.1)       
      TOTAL FLOW IS ZERO. BLOCK IS BYPASSED.                                    
 

      UOS BLOCK COOLER2  MODEL: HEATER                                            TIME =      3.03

  *   WARNING WHILE EXECUTING UNIT OPERATIONS BLOCK: "COOLER2" (MODEL:          
[...]
      "HEATER")                                                (UHE01.4)        
      ZERO FEED TO THE BLOCK.  BLOCK BYPASSED                                   

      UOS BLOCK FLASH3   MODEL: FLASH2                                            TIME =      3.03
      KODE = 2  NTRIAL =   3  T = 244.2500  P =  740000.      V =  0.00000      Q = -3390.61    

      UOS BLOCK COMP3    MODEL: COMPR                                             TIME =      3.03

  *   WARNING WHILE EXECUTING UNIT OPERATIONS BLOCK: "COMP3" (MODEL: "COMPR")   
                                                               (CMSTIN.1)       
      TOTAL FLOW IS ZERO. BLOCK IS BYPASSED.                                    
 

      UOS BLOCK COOLER3  MODEL: HEATER                                            TIME =      3.03

  *   WARNING WHILE EXECUTING UNIT OPERATIONS BLOCK: "COOLER3" (MODEL:          
      "HEATER")                                                (UHE01.4)        
      ZERO FEED TO THE BLOCK.  BLOCK BYPASSED                                   

      UOS BLOCK B10      MODEL: MIXER                                             TIME =      3.03
      KODE = 1  NTRIAL =   1  T = 272.4964  P = 1.000000E+06  V = 0.113925      Q =  0.00000    

      CONVERGENCE BLOCK $OLVER01  METHOD: WEGSTEIN                                TIME =      3.03
      ITER  26 For Tear Streams: 2

      --FLASH TEAR STREAM 2       
      KODE = 1  NTRIAL =   2  T = 272.4293  P = 1.000000E+06  V = 0.117099      Q =  0.00000    

  LOOP $OLVER01 ITER   26:   5 VARS NOT CONVERGED, MAX ERR/TOL      179.52        TIME =      3.03

      UOS BLOCK FLASH1   MODEL: FLASH2                                            TIME =      3.04
      KODE = 2  NTRIAL =   1  T = 322.0500  P = 2.070000E+06  V = 0.978893      Q =  425601.    

      UOS BLOCK COMP1    MODEL: COMPR                                             TIME =      3.04
      OUTLET TEMP =   326.2       OUTLET PRES =  0.2230E+07   INDICATED HP =   4024.       BRAKE HP =   4024.    
      ISENTR TEMP =   326.2      CALC ISENTR EFF =   1.000      ISENTR HP =   4024.      HP =   111.9    

      UOS BLOCK COOLER1  MODEL: HEATER                                            TIME =      3.04
      KODE = 2  NTRIAL =   4  T = 277.5500  P = 2.210000E+06  V =  0.00000      Q = -452193.    

      UOS BLOCK FLASH2   MODEL: FLASH2                                            TIME =      3.04
      KODE = 2  NTRIAL =   3  T = 283.1500  P = 1.240000E+06  V =  0.00000      Q = -2966.39    

      UOS BLOCK COMP2    MODEL: COMPR                                             TIME =      3.04

  *   WARNING WHILE EXECUTING UNIT OPERATIONS BLOCK: "COMP2" (MODEL: "COMPR")   
                                                               (CMSTIN.1)       
      TOTAL FLOW IS ZERO. BLOCK IS BYPASSED.                                    
 

      UOS BLOCK COOLER2  MODEL: HEATER                                            TIME =      3.04

  *   WARNING WHILE EXECUTING UNIT OPERATIONS BLOCK: "COOLER2" (MODEL:          
      "HEATER")                                                (UHE01.4)        
      ZERO FEED TO THE BLOCK.  BLOCK BYPASSED                                   

      UOS BLOCK FLASH3   MODEL: FLASH2                                            TIME =      3.04
      KODE = 2  NTRIAL =   3  T = 244.2500  P =  740000.      V =  0.00000      Q = -2535.65    

      UOS BLOCK COMP3    MODEL: COMPR                                             TIME =      3.04

  *   WARNING WHILE EXECUTING UNIT OPERATIONS BLOCK: "COMP3" (MODEL: "COMPR")   
                                                               (CMSTIN.1)       
      TOTAL FLOW IS ZERO. BLOCK IS BYPASSED.                                    
 

      UOS BLOCK COOLER3  MODEL: HEATER                                            TIME =      3.04

  *   WARNING WHILE EXECUTING UNIT OPERATIONS BLOCK: "COOLER3" (MODEL:          
      "HEATER")                                                (UHE01.4)        
      ZERO FEED TO THE BLOCK.  BLOCK BYPASSED                                   

      UOS BLOCK B10      MODEL: MIXER                                             TIME =      3.04
      KODE = 1  NTRIAL =   2  T = 272.4392  P = 1.000000E+06  V = 0.111985      Q =  0.00000    

      CONVERGENCE BLOCK $OLVER01  METHOD: WEGSTEIN                                TIME =      3.04
      ITER  27 For Tear Streams: 2

      --FLASH TEAR STREAM 2       
      KODE = 1  NTRIAL =   1  T = 272.4385  P = 1.000000E+06  V = 0.111983      Q =  0.00000    

  LOOP $OLVER01 ITER   27:   5 VARS NOT CONVERGED, MAX ERR/TOL      308.91        TIME =      3.04

      UOS BLOCK FLASH1   MODEL: FLASH2                                            TIME =      3.04
      KODE = 2  NTRIAL =   1  T = 322.0500  P = 2.070000E+06  V = 0.972333      Q =  435359.    

      UOS BLOCK COMP1    MODEL: COMPR                                             TIME =      3.04
      OUTLET TEMP =   326.2       OUTLET PRES =  0.2230E+07   INDICATED HP =   4089.       BRAKE HP =   4089.    
      ISENTR TEMP =   326.2      CALC ISENTR EFF =   1.000      ISENTR HP =   4089.      HP =   115.6    

      UOS BLOCK COOLER1  MODEL: HEATER                                            TIME =      3.04
      KODE = 2  NTRIAL =   4  T = 277.5500  P = 2.210000E+06  V =  0.00000      Q = -459634.    

      UOS BLOCK FLASH2   MODEL: FLASH2                                            TIME =      3.04
      KODE = 2  NTRIAL =   3  T = 283.1500  P = 1.240000E+06  V =  0.00000      Q = -3978.49    

      UOS BLOCK COMP2    MODEL: COMPR                                             TIME =      3.04

  *   WARNING WHILE EXECUTING UNIT OPERATIONS BLOCK: "COMP2" (MODEL: "COMPR")   
                                                               (CMSTIN.1)       
      TOTAL FLOW IS ZERO. BLOCK IS BYPASSED.                                    
 

      UOS BLOCK COOLER2  MODEL: HEATER                                            TIME =      3.04

  *   WARNING WHILE EXECUTING UNIT OPERATIONS BLOCK: "COOLER2" (MODEL:          
      "HEATER")                                                (UHE01.4)        
      ZERO FEED TO THE BLOCK.  BLOCK BYPASSED                                   

      UOS BLOCK FLASH3   MODEL: FLASH2                                            TIME =      3.04
      KODE = 2  NTRIAL =   3  T = 244.2500  P =  740000.      V =  0.00000      Q = -3400.59    

      UOS BLOCK COMP3    MODEL: COMPR                                             TIME =      3.04

  *   WARNING WHILE EXECUTING UNIT OPERATIONS BLOCK: "COMP3" (MODEL: "COMPR")   
                                                               (CMSTIN.1)       
      TOTAL FLOW IS ZERO. BLOCK IS BYPASSED.                                    
 

      UOS BLOCK COOLER3  MODEL: HEATER                                            TIME =      3.04

  *   WARNING WHILE EXECUTING UNIT OPERATIONS BLOCK: "COOLER3" (MODEL:          
      "HEATER")                                                (UHE01.4)        
      ZERO FEED TO THE BLOCK.  BLOCK BYPASSED                                   

      UOS BLOCK B10      MODEL: MIXER                                             TIME =      3.04
      KODE = 1  NTRIAL =   1  T = 272.4360  P = 1.000000E+06  V = 0.110981      Q =  0.00000    

      CONVERGENCE BLOCK $OLVER01  METHOD: WEGSTEIN                                TIME =      3.04
      ITER  28 For Tear Streams: 2

      --FLASH TEAR STREAM 2       
      KODE = 1  NTRIAL =   3  T = 272.2000  P = 1.000000E+06  V = 0.122317      Q =  0.00000    

  LOOP $OLVER01 ITER   28:   4 VARS NOT CONVERGED, MAX ERR/TOL      168.76        TIME =      3.04

      UOS BLOCK FLASH1   MODEL: FLASH2                                            TIME =      3.04
      KODE = 2  NTRIAL =   2  T = 322.0500  P = 2.070000E+06  V = 0.998923      Q =  466464.    

      UOS BLOCK COMP1    MODEL: COMPR                                             TIME =      3.04
      OUTLET TEMP =   326.2       OUTLET PRES =  0.2230E+07   INDICATED HP =   4451.       BRAKE HP =   4451.    
      ISENTR TEMP =   326.2      CALC ISENTR EFF =   1.000      ISENTR HP =   4451.      HP =   136.9    

      UOS BLOCK COOLER1  MODEL: HEATER                                            TIME =      3.04
      KODE = 2  NTRIAL =   4  T = 277.5500  P = 2.210000E+06  V =  0.00000      Q = -500069.    

      UOS BLOCK FLASH2   MODEL: FLASH2                                            TIME =      3.04
      KODE = 2  NTRIAL =   3  T = 283.1500  P = 1.240000E+06  V =  0.00000      Q = -164.098    

      UOS BLOCK COMP2    MODEL: COMPR                                             TIME =      3.04

  *   WARNING WHILE EXECUTING UNIT OPERATIONS BLOCK: "COMP2" (MODEL: "COMPR")   
                                                               (CMSTIN.1)       
      TOTAL FLOW IS ZERO. BLOCK IS BYPASSED.                                    
 

      UOS BLOCK COOLER2  MODEL: HEATER                                            TIME =      3.04

  *   WARNING WHILE EXECUTING UNIT OPERATIONS BLOCK: "COOLER2" (MODEL:          
      "HEATER")                                                (UHE01.4)        
      ZERO FEED TO THE BLOCK.  BLOCK BYPASSED                                   

      UOS BLOCK FLASH3   MODEL: FLASH2                                            TIME =      3.04
      KODE = 2  NTRIAL =   3  T = 244.2500  P =  740000.      V =  0.00000      Q = -140.278    

      UOS BLOCK COMP3    MODEL: COMPR                                             TIME =      3.04

  *   WARNING WHILE EXECUTING UNIT OPERATIONS BLOCK: "COMP3" (MODEL: "COMPR")   
                                                               (CMSTIN.1)       
      TOTAL FLOW IS ZERO. BLOCK IS BYPASSED.                                    
 

      UOS BLOCK COOLER3  MODEL: HEATER                                            TIME =      3.04

  *   WARNING WHILE EXECUTING UNIT OPERATIONS BLOCK: "COOLER3" (MODEL:          
      "HEATER")                                                (UHE01.4)        
      ZERO FEED TO THE BLOCK.  BLOCK BYPASSED                                   

      UOS BLOCK B10      MODEL: MIXER                                             TIME =      3.04
      KODE = 1  NTRIAL =   3  T = 272.2505  P = 1.000000E+06  V = 0.107409      Q =  0.00000    

      CONVERGENCE BLOCK $OLVER01  METHOD: WEGSTEIN                                TIME =      3.04
      ITER  29 For Tear Streams: 2

      --FLASH TEAR STREAM 2       
      KODE = 1  NTRIAL =   1  T = 272.2462  P = 1.000000E+06  V = 0.107351      Q =  0.00000    

  LOOP $OLVER01 ITER   29:   5 VARS NOT CONVERGED, MAX ERR/TOL      775.93        TIME =      3.04

      UOS BLOCK FLASH1   MODEL: FLASH2                                            TIME =      3.04
      KODE = 2  NTRIAL =   1  T = 322.0500  P = 2.070000E+06  V = 0.974944      Q =  482831.    

      UOS BLOCK COMP1    MODEL: COMPR                                             TIME =      3.04
      OUTLET TEMP =   326.2       OUTLET PRES =  0.2230E+07   INDICATED HP =   4516.       BRAKE HP =   4516.    
      ISENTR TEMP =   326.2      CALC ISENTR EFF =   1.000      ISENTR HP =   4516.      HP =   141.0    

      UOS BLOCK COOLER1  MODEL: HEATER                                            TIME =      3.04
      KODE = 2  NTRIAL =   4  T = 277.5500  P = 2.210000E+06  V =  0.00000      Q = -507545.    

      UOS BLOCK FLASH2   MODEL: FLASH2                                            TIME =      3.04
      KODE = 2  NTRIAL =   3  T = 283.1500  P = 1.240000E+06  V =  0.00000      Q = -3968.39    

      UOS BLOCK COMP2    MODEL: COMPR                                             TIME =      3.04

  *   WARNING WHILE EXECUTING UNIT OPERATIONS BLOCK: "COMP2" (MODEL: "COMPR")   
                                                               (CMSTIN.1)       
      TOTAL FLOW IS ZERO. BLOCK IS BYPASSED.                                    
 

      UOS BLOCK COOLER2  MODEL: HEATER                                            TIME =      3.04

  *   WARNING WHILE EXECUTING UNIT OPERATIONS BLOCK: "COOLER2" (MODEL:          
      "HEATER")                                                (UHE01.4)        
      ZERO FEED TO THE BLOCK.  BLOCK BYPASSED                                   

      UOS BLOCK FLASH3   MODEL: FLASH2                                            TIME =      3.04
      KODE = 2  NTRIAL =   3  T = 244.2500  P =  740000.      V =  0.00000      Q = -3392.17    

      UOS BLOCK COMP3    MODEL: COMPR                                             TIME =      3.04

  *   WARNING WHILE EXECUTING UNIT OPERATIONS BLOCK: "COMP3" (MODEL: "COMPR")   
                                                               (CMSTIN.1)       
      TOTAL FLOW IS ZERO. BLOCK IS BYPASSED.                                    
 

      UOS BLOCK COOLER3  MODEL: HEATER                                            TIME =      3.04

  *   WARNING WHILE EXECUTING UNIT OPERATIONS BLOCK: "COOLER3" (MODEL:          
      "HEATER")                                                (UHE01.4)        
      ZERO FEED TO THE BLOCK.  BLOCK BYPASSED                                   

      UOS BLOCK B10      MODEL: MIXER                                             TIME =      3.04
      KODE = 1  NTRIAL =   1  T = 272.2509  P = 1.000000E+06  V = 0.106544      Q =  0.00000    

      CONVERGENCE BLOCK $OLVER01  METHOD: WEGSTEIN                                TIME =      3.04
      ITER  30 For Tear Streams: 2

  *   WARNING WHILE EXECUTING CONVERGENCE BLOCK: "$OLVER01" (MODEL: "WEGSTEIN") 
                                                               (CONVI.1)        
      CONVERGENCE BLOCK $OLVER01 NOT CONVERGED IN 30 ITERATIONS                 

     VAR#  TEAR STREAM VAR     STREAM   SUBSTREA COMPONEN ATTRIBUT ELEMENT       NEW X            G(X)             X           ERR/TOL
     ----  ---------------     -------- -------- -------- -------- -------- --------------- --------------- --------------- ---------------
        1  TOTAL MOLEFLOW  (1) 2        MIXED                                 0.32030033E-01  0.32487473E-01  0.32030033E-01   142.81587     *   
        2  MOLE-FLOW       (2) 2        MIXED    ETHANE                       0.12327067E-01  0.12490573E-01  0.12327067E-01   132.64018     *   
        3  MOLE-FLOW       (2) 2        MIXED    PROPANE                      0.17170715E-01  0.17436278E-01  0.17170715E-01   154.66013     *   
        4  MOLE-FLOW       (2) 2        MIXED    BUTANE                       0.25322511E-02  0.25606218E-02  0.25322511E-02   112.03769     *   

  LOOP $OLVER01 ITER   30:   4 VARS NOT CONVERGED, MAX ERR/TOL      154.66        TIME =      3.04


  **  ERROR WHILE IN SEQUENCE MONITOR                          (BALMAS.1)       
      BLOCK B10 IS NOT IN MASS BALANCE:                                         
      MASS INLET FLOW = 0.12932983E+01, MASS OUTLET FLOW = 0.12750223E+01       
      RELATIVE DIFFERENCE = 0.14333841E-01                                      
      MAY BE DUE TO A TEAR STREAM OR A STREAM FLOW MAY HAVE BEEN                
      CHANGED BY A CALCULATOR, TRANSFER, BALANCE, OR CONVERGENCE BLOCK          
      AFTER THE BLOCK HAD BEEN EXECUTED.                                        

  **  ERROR WHILE IN SEQUENCE MONITOR                          (CHKCVG.1)       
      Convergence block $OLVER01 did not converge                               
      normally in the final pass                                                

      GENERATING RESULTS FOR UOS BLOCK COOLER1  MODEL: HEATER                     TIME =      3.04
      STREAM 2 WILL BE FLASHED FOR PROPERTY CALCULATIONS.
      KODE = 2  NTRIAL =   3  T = 272.2509  P = 1.000000E+06  V = 0.107425      Q =  6.52714    

 STREAM 2       
        SUBSTREAM MIXED     F =  3.203003320654175E-02  T =   272.250917096787      P =   1000000.00000000    
                            H =  -114218302.175140      V =  0.106544028374215      L =  0.893455971625785    
                            ENTROPY =  -7700.00488043735      DENSITY =   144.338181252076      MW =   39.8070862956641    
        ETHANE    1.232706674981264E-02  PROPANE   1.717071537420236E-02  BUTANE    2.532251082526746E-03

 STREAM 12      
        SUBSTREAM MIXED     F =   0.00000000000000      T =  1.000000000000000E+35  P =   1240000.00000000    
                            H =  1.000000000000000E+35  V =  1.000000000000000E+35  L =  1.000000000000000E+35
                            ENTROPY =  1.000000000000000E+35  DENSITY =  1.000000000000000E+35  MW =  1.000000000000000E+35
        ETHANE     0.00000000000000      PROPANE    0.00000000000000      BUTANE     0.00000000000000    

 STREAM 3       
        SUBSTREAM MIXED     F =  3.122749409888537E-02  T =   322.050000000000      P =   2070000.00000000    
                            H =  -98659948.5853629      V =   1.00000000000000      L =   0.00000000000000    
                            ENTROPY =  -6461.27036879594      DENSITY =   42.2009740922133      MW =   39.6927443308109    
        ETHANE    1.217557847777696E-02  PROPANE   1.668029060428763E-02  BUTANE    2.371625016820764E-03

 STREAM 4       
        SUBSTREAM MIXED     F =  8.025391076563798E-04  T =   322.050000000000      P =   2070000.00000000    
                            H =  -117978278.865554      V =   0.00000000000000      L =   1.00000000000000    
                            ENTROPY =  -7330.76741435472      DENSITY =   455.903062968813      MW =   44.2562315124824    
        ETHANE    1.514882720607125E-04  PROPANE   4.904247699051472E-04  BUTANE    1.606260656905201E-04

 STREAM 5       
        SUBSTREAM MIXED     F =   0.00000000000000      T =  1.000000000000000E+35  P =   1240000.00000000    
                            H =  1.000000000000000E+35  V =  1.000000000000000E+35  L =  1.000000000000000E+35
                            ENTROPY =  1.000000000000000E+35  DENSITY =  1.000000000000000E+35  MW =  1.000000000000000E+35
        ETHANE     0.00000000000000      PROPANE    0.00000000000000      BUTANE     0.00000000000000    

 STREAM 6       
        SUBSTREAM MIXED     F =  8.025391076563798E-04  T =   283.150000000000      P =   1240000.00000000    
                            H =  -122923071.768142      V =   0.00000000000000      L =   1.00000000000000    
                            ENTROPY =  -7694.26909117334      DENSITY =   517.943097550251      MW =   44.2562315124824    
        ETHANE    1.514882720607125E-04  PROPANE   4.904247699051472E-04  BUTANE    1.606260656905201E-04

 STREAM 9       
        SUBSTREAM MIXED     F =  3.122749409888537E-02  T =   326.168348476924      P =   2230000.00000000    
                            H =  -98515322.6486009      V =   1.00000000000000      L =   0.00000000000000    
                            ENTROPY =  -6461.27031836402      DENSITY =   45.6774668588519      MW =   39.6927443308109    
        ETHANE    1.217557847777696E-02  PROPANE   1.668029060428763E-02  BUTANE    2.371625016820764E-03
      STREAM 2 WILL BE FLASHED FOR PROPERTY CALCULATIONS.
      KODE = 2  NTRIAL =   3  T = 272.2509  P = 1.000000E+06  V = 0.107425      Q =  6.52714    

 Report Writer entered                                                            Time =      4.38
      STREAM 2 WILL BE FLASHED FOR PROPERTY CALCULATIONS.
      KODE = 2  NTRIAL =   3  T = 272.2509  P = 1.000000E+06  V = 0.107425      Q =  6.52714    

 Results generated                                                                Time =      4.40
